Program Version,EnergyPlus, Version 9.5.0-de239b2e5f, YMD=2023.08.02 11:53
! This file shows details about the branches, nodes, and other
! elements of the flow connections.
! This file is intended for use in "debugging" potential problems
! that may also be detected by the program, but may be more easily
! identified by "eye".
! This file is also intended to support software which draws a
! schematic diagram of the HVAC system.
! ===============================================================
! #Nodes,<Number of Unique Nodes>
 #Nodes,13
! <Node>,<NodeNumber>,<Node Name>,<Node Fluid Type>,<# Times Node Referenced After Definition>
 Node,1,ZONE_1_ERV_SUPPLY,Air,3
 Node,2,ZONE1MECHAIROUTLETNODE,Air,3
 Node,3,ZONE_1_RETURN,Air,1
 Node,4,ZONE_1_ERV_EXHAUST,Air,5
 Node,5,ZONE1MECHAIRINLETNODE,Air,3
 Node,6,ZONE_1_ZONE_AIR_NODE,Air,0
 Node,7,OA_1,Air,2
 Node,8,OA_2,Air,0
 Node,9,ZONE1PTHPFANOUTLETNODE,Air,1
 Node,10,ZONE1PTHPDXCOOLCOILOUTLETNODE,Air,1
 Node,11,ZONE1PTHPDXHEATCOILOUTLETNODE,Air,1
 Node,12,ERV_CORE_SUP_OUT,Air,1
 Node,13,ERV_CORE_EXH_OUT,Air,1
! ===============================================================
! Suspicious nodes have 0 references.  It is normal for some nodes, however.
! Listing nodes with 0 references (culled from previous list):
! <Suspicious Node>,<NodeNumber>,<Node Name>,<Node Fluid Type>,<# Times Node Referenced After Definition>
 Suspicious Node,6,ZONE_1_ZONE_AIR_NODE,Air,0
 Suspicious Node,8,OA_2,Air,0
! ===============================================================
! <#Branch Lists>,<Number of Branch Lists>
 #Branch Lists,0
! <Branch List>,<Branch List Count>,<Branch List Name>,<Loop Name>,<Loop Type>,<Number of Branches>
! <Branch>,<Branch Count>,<Branch Name>,<Loop Name>,<Loop Type>,<Branch Inlet Node Name>,<Branch Outlet Node Name>
! ===============================================================
! <#Supply Air Paths>,<Number of Supply Air Paths>
 #Supply Air Paths,0
! <Supply Air Path>,<Supply Air Path Count>,<Supply Air Path Name>,<AirLoopHVAC Name>
! <#Components on Supply Air Path>,<Number of Components>
! <Supply Air Path Component>,<Component Count>,<Component Type>,<Component Name>,<AirLoopHVAC Name>
! <#Outlet Nodes on Supply Air Path Component>,<Number of Nodes>
! <Supply Air Path Component Nodes>,<Node Count>,<Component Type>,<Component Name>,<Inlet Node Name>,<Outlet Node Name>,<AirLoopHVAC Name>
! ===============================================================
! <#Return Air Paths>,<Number of Return Air Paths>
 #Return Air Paths,0
! <Return Air Path>,<Return Air Path Count>,<Return Air Path Name>,<AirLoopHVAC Name>
! <#Components on Return Air Path>,<Number of Components>
! <Return Air Path Component>,<Component Count>,<Component Type>,<Component Name>,<AirLoopHVAC Name>
! <#Inlet Nodes on Return Air Path Component>,<Number of Nodes>
! <Return Air Path Component Nodes>,<Node Count>,<Component Type>,<Component Name>,<Inlet Node Name>,<Outlet Node Name>,<AirLoopHVAC Name>
! ===============================================================
! #Outdoor Air Nodes,<Number of Outdoor Air Nodes>
 #Outdoor Air Nodes,2
! <Outdoor Air Node>,<NodeNumber>,<Node Name>
 Outdoor Air Node,7,OA_1
 Outdoor Air Node,8,OA_2
! ===============================================================
! <#Component Sets>,<Number of Component Sets>
 #Component Sets,7
! <Component Set>,<Component Set Count>,<Parent Object Type>,<Parent Object Name>,<Component Type>,<Component Name>,<Inlet Node ID>,<Outlet Node ID>,<Description>
 Component Set,1,ZONEHVAC:PACKAGEDTERMINALHEATPUMP,ZONE1PTHP,FAN:SYSTEMMODEL,ZONE1PTHPFAN,ZONE1MECHAIRINLETNODE,ZONE1PTHPFANOUTLETNODE,Air Nodes
 Component Set,2,ZONEHVAC:PACKAGEDTERMINALHEATPUMP,ZONE1PTHP,COIL:COOLING:DX:SINGLESPEED,ZONE1PTHPDXCOOLCOIL,ZONE1PTHPFANOUTLETNODE,ZONE1PTHPDXCOOLCOILOUTLETNODE,Air Nodes
 Component Set,3,ZONEHVAC:PACKAGEDTERMINALHEATPUMP,ZONE1PTHP,COIL:HEATING:DX:SINGLESPEED,ZONE1PTHPDXHEATCOIL,ZONE1PTHPDXCOOLCOILOUTLETNODE,ZONE1PTHPDXHEATCOILOUTLETNODE,Air Nodes
 Component Set,4,ZONEHVAC:PACKAGEDTERMINALHEATPUMP,ZONE1PTHP,COIL:HEATING:ELECTRIC,ZONE1PTHPSUPHEATER,ZONE1PTHPDXHEATCOILOUTLETNODE,ZONE1MECHAIROUTLETNODE,Air Nodes
 Component Set,5,ZONEHVAC:ENERGYRECOVERYVENTILATOR,ERV1,HEATEXCHANGER:AIRTOAIR:SENSIBLEANDLATENT,ERV_CORE,OA_1,ERV_CORE_SUP_OUT,Process Air Nodes
 Component Set,6,ZONEHVAC:ENERGYRECOVERYVENTILATOR,ERV1,FAN:ONOFF,ERV_SUPPLY_FAN,ERV_CORE_SUP_OUT,ZONE_1_ERV_SUPPLY,Air Nodes
 Component Set,7,ZONEHVAC:ENERGYRECOVERYVENTILATOR,ERV1,FAN:ONOFF,ERV_EXHAUST_FAN,ERV_CORE_EXH_OUT,ZONE_1_ERV_EXHAUST,Air Nodes
! ===============================================================
! <# Plant Loops>,<Number of Plant Loops>
 #Plant Loops,0
! <Plant Loop>,<Plant Loop Name>,<Loop Type>,<Inlet Node Name>,<Outlet Node Name>,<Branch List>,<Connector List>
! <Plant Loop Connector>,<Connector Type>,<Connector Name>,<Loop Name>,<Loop Type>,<Number of Inlets/Outlets>
! <Plant Loop Connector Branches>,<Connector Node Count>,<Connector Type>,<Connector Name>,<Inlet Branch>,<Outlet Branch>,<Loop Name>,<Loop Type>
! <Plant Loop Connector Nodes>,<Connector Node Count>,<Connector Type>,<Connector Name>,<Inlet Node>,<Outlet Node>,<Loop Name>,<Loop Type>
! <Plant Loop Supply Connection>,<Plant Loop Name>,<Supply Side Outlet Node Name>,<Demand Side Inlet Node Name>
! <Plant Loop Return Connection>,<Plant Loop Name>,<Demand Side Outlet Node Name>,<Supply Side Inlet Node Name>
! ===============================================================
! <# Condenser Loops>,<Number of Condenser Loops>
 #Condenser Loops,0
! <Condenser Loop>,<Condenser Loop Name>,<Loop Type>,<Inlet Node Name>,<Outlet Node Name>,<Branch List>,<Connector List>
! <Condenser Loop Connector>,<Connector Type>,<Connector Name>,<Loop Name>,<Loop Type>,<Number of Inlets/Outlets>
! <Condenser Loop Connector Branches>,<Connector Node Count>,<Connector Type>,<Connector Name>,<Inlet Branch>,<Outlet Branch>,<Loop Name>,<Loop Type>
! <Condenser Loop Connector Nodes>,<Connector Node Count>,<Connector Type>,<Connector Name>,<Inlet Node>,<Outlet Node>,<Loop Name>,<Loop Type>
! <Condenser Loop Supply Connection>,<Condenser Loop Name>,<Supply Side Outlet Node Name>,<Demand Side Inlet Node Name>
! <Condenser Loop Return Connection>,<Condenser Loop Name>,<Demand Side Outlet Node Name>,<Supply Side Inlet Node Name>
! ===============================================================
! <# Controlled Zones>,<Number of Controlled Zones>
 #Controlled Zones,1
! <Controlled Zone>,<Controlled Zone Name>,<Equip List Name>,<Control List Name>,<Zone Node Name>,<# Inlet Nodes>,<# Exhaust Nodes>,<# Return Nodes>
! <Controlled Zone Inlet>,<Inlet Node Count>,<Controlled Zone Name>,<Supply Air Inlet Node Name>,<SD Sys:Cooling/Heating [DD:Cooling] Inlet Node Name>,<DD Sys:Heating Inlet Node Name>
! <Controlled Zone Exhaust>,<Exhaust Node Count>,<Controlled Zone Name>,<Exhaust Air Node Name>
 Controlled Zone,ZONE 1,ZONE_1_EQUIPMENT,,ZONE_1_ZONE_AIR_NODE,2,2,1
   Controlled Zone Inlet,1,ZONE 1,ZONE_1_ERV_SUPPLY,Undefined,N/A
   Controlled Zone Inlet,2,ZONE 1,ZONE1MECHAIROUTLETNODE,Undefined,N/A
   Controlled Zone Exhaust,1,ZONE 1,ZONE_1_ERV_EXHAUST
   Controlled Zone Exhaust,2,ZONE 1,ZONE1MECHAIRINLETNODE
   Controlled Zone Return,1,ZONE 1,ZONE_1_RETURN
! ===============================================================
! <#Zone Equipment Lists>,<Number of Zone Equipment Lists>
 #Zone Equipment Lists,1
! <Zone Equipment List>,<Zone Equipment List Count>,<Zone Equipment List Name>,<Zone Name>,<Number of Components>
! <Zone Equipment Component>,<Component Count>,<Component Type>,<Component Name>,<Zone Name>,<Heating Priority>,<Cooling Priority>
 Zone Equipment List,1,ZONE_1_EQUIPMENT,ZONE 1,2
   Zone Equipment Component,1,ZONEHVAC:ENERGYRECOVERYVENTILATOR,ERV1,ZONE 1,2,2
   Zone Equipment Component,2,ZONEHVAC:PACKAGEDTERMINALHEATPUMP,ZONE1PTHP,ZONE 1,1,1
! ===============================================================
! <#AirLoopHVACs>,<Number of AirLoopHVACs>
 #AirLoopHVACs,0
! <AirLoopHVAC>,<Air Loop Name>,<# Return Nodes>,<# Supply Nodes>,<# Zones Cooled>,<# Zones Heated>,<Outdoor Air Used>
! <AirLoop Return Connections>,<Connection Count>,<AirLoopHVAC Name>,<Zn Eqp Return Node #>,<Zn Eqp Return Node Name>,<AirLoop Return Node #>,<Air Loop Return Node Name>
! <AirLoop Supply Connections>,<Connection Count>,<AirLoopHVAC Name>,<Zn Eqp Supply Node #>,<Zn Eqp Supply Node Name>,<AirLoop Supply Node #>,<Air Loop Supply Node Name>
! <Cooled Zone Info>,<Cooled Zone Count>,<Cooled Zone Name>,<Cooled Zone Inlet Node #>,<Cooled Zone Inlet Node Name>,<AirLoopHVAC Name>
! <Heated Zone Info>,<Heated Zone Count>,<Heated Zone Name>,<Heated Zone Inlet Node #>,<Heated Zone Inlet Node Name>,<AirLoopHVAC Name>
! <Outdoor Air Connections>,<OA Inlet Node #>,<OA Return Air Inlet Node Name>,<OA Outlet Node #>,<OA Mixed Air Outlet Node Name>,<AirLoopHVAC Name>
! <AirLoopHVAC Connector>,<Connector Type>,<Connector Name>,<Loop Name>,<Loop Type>,<Number of Inlets/Outlets>
! <AirLoopHVAC Connector Branches>,<Connector Node Count>,<Connector Type>,<Connector Name>,<Inlet Branch>,<Outlet Branch>,<Loop Name>,<Loop Type>
! <AirLoopHVAC Connector Nodes>,<Connector Node Count>,<Connector Type>,<Connector Name>,<Inlet Node>,<Outlet Node>,<Loop Name>,<Loop Type>
! ===============================================================
! <#Parent Node Connections>,<Number of Parent Node Connections>
 #Parent Node Connections,6
! <Parent Node Connection>,<Node Name>,<Node ObjectType>,<Node ObjectName>,<Node ConnectionType>,<Node FluidStream>
 Parent Node Connection,ZONE1MECHAIRINLETNODE,ZONEHVAC:PACKAGEDTERMINALHEATPUMP,ZONE1PTHP,Inlet,1
 Parent Node Connection,ZONE1MECHAIROUTLETNODE,ZONEHVAC:PACKAGEDTERMINALHEATPUMP,ZONE1PTHP,Outlet,1
 Parent Node Connection,OA_1,ZONEHVAC:ENERGYRECOVERYVENTILATOR,ERV1,Inlet,1
 Parent Node Connection,ZONE_1_ERV_SUPPLY,ZONEHVAC:ENERGYRECOVERYVENTILATOR,ERV1,Outlet,1
 Parent Node Connection,ZONE_1_ERV_EXHAUST,ZONEHVAC:ENERGYRECOVERYVENTILATOR,ERV1,Inlet,2
 Parent Node Connection,ZONE_1_ERV_EXHAUST,ZONEHVAC:ENERGYRECOVERYVENTILATOR,ERV1,ReliefAir,2
! ===============================================================
! <#Non-Parent Node Connections>,<Number of Non-Parent Node Connections>
 #Non-Parent Node Connections,24
! <Non-Parent Node Connection>,<Node Name>,<Node ObjectType>,<Node ObjectName>,<Node ConnectionType>,<Node FluidStream>
 Non-Parent Node Connection,ZONE_1_ZONE_AIR_NODE,ZONEHVAC:EQUIPMENTCONNECTIONS,ZONE 1,ZoneNode,1
 Non-Parent Node Connection,ZONE_1_ERV_SUPPLY,ZONEHVAC:EQUIPMENTCONNECTIONS,ZONE 1,ZoneInlet,1
 Non-Parent Node Connection,ZONE1MECHAIROUTLETNODE,ZONEHVAC:EQUIPMENTCONNECTIONS,ZONE 1,ZoneInlet,1
 Non-Parent Node Connection,ZONE_1_ERV_EXHAUST,ZONEHVAC:EQUIPMENTCONNECTIONS,ZONE 1,ZoneExhaust,1
 Non-Parent Node Connection,ZONE1MECHAIRINLETNODE,ZONEHVAC:EQUIPMENTCONNECTIONS,ZONE 1,ZoneExhaust,1
 Non-Parent Node Connection,ZONE_1_RETURN,ZONEHVAC:EQUIPMENTCONNECTIONS,ZONE 1,ZoneReturn,1
 Non-Parent Node Connection,OA_1,OUTDOORAIR:NODE,OutdoorAir:Node,OutdoorAir,1
 Non-Parent Node Connection,OA_2,OUTDOORAIR:NODE,OutdoorAir:Node,OutdoorAir,2
 Non-Parent Node Connection,ZONE1MECHAIRINLETNODE,FAN:SYSTEMMODEL,ZONE1PTHPFAN,Inlet,1
 Non-Parent Node Connection,ZONE1PTHPFANOUTLETNODE,FAN:SYSTEMMODEL,ZONE1PTHPFAN,Outlet,1
 Non-Parent Node Connection,ZONE1PTHPFANOUTLETNODE,COIL:COOLING:DX:SINGLESPEED,ZONE1PTHPDXCOOLCOIL,Inlet,1
 Non-Parent Node Connection,ZONE1PTHPDXCOOLCOILOUTLETNODE,COIL:COOLING:DX:SINGLESPEED,ZONE1PTHPDXCOOLCOIL,Outlet,1
 Non-Parent Node Connection,ZONE1PTHPDXCOOLCOILOUTLETNODE,COIL:HEATING:DX:SINGLESPEED,ZONE1PTHPDXHEATCOIL,Inlet,1
 Non-Parent Node Connection,ZONE1PTHPDXHEATCOILOUTLETNODE,COIL:HEATING:DX:SINGLESPEED,ZONE1PTHPDXHEATCOIL,Outlet,1
 Non-Parent Node Connection,ZONE1PTHPDXHEATCOILOUTLETNODE,COIL:HEATING:ELECTRIC,ZONE1PTHPSUPHEATER,Inlet,1
 Non-Parent Node Connection,ZONE1MECHAIROUTLETNODE,COIL:HEATING:ELECTRIC,ZONE1PTHPSUPHEATER,Outlet,1
 Non-Parent Node Connection,OA_1,HEATEXCHANGER:AIRTOAIR:SENSIBLEANDLATENT,ERV_CORE,Inlet,1
 Non-Parent Node Connection,ERV_CORE_SUP_OUT,HEATEXCHANGER:AIRTOAIR:SENSIBLEANDLATENT,ERV_CORE,Outlet,1
 Non-Parent Node Connection,ZONE_1_ERV_EXHAUST,HEATEXCHANGER:AIRTOAIR:SENSIBLEANDLATENT,ERV_CORE,Inlet,2
 Non-Parent Node Connection,ERV_CORE_EXH_OUT,HEATEXCHANGER:AIRTOAIR:SENSIBLEANDLATENT,ERV_CORE,Outlet,2
 Non-Parent Node Connection,ERV_CORE_SUP_OUT,FAN:ONOFF,ERV_SUPPLY_FAN,Inlet,1
 Non-Parent Node Connection,ZONE_1_ERV_SUPPLY,FAN:ONOFF,ERV_SUPPLY_FAN,Outlet,1
 Non-Parent Node Connection,ERV_CORE_EXH_OUT,FAN:ONOFF,ERV_EXHAUST_FAN,Inlet,1
 Non-Parent Node Connection,ZONE_1_ERV_EXHAUST,FAN:ONOFF,ERV_EXHAUST_FAN,Outlet,1
