Program Version,EnergyPlus, Version 9.5.0-de239b2e5f, YMD=2024.05.17 14:32,
   ************* Beginning Zone Sizing Calculations
   ** Warning ** ProcessScheduleInput: Schedule:Constant="COUNT", Schedule Type Limits Name="ANYNUMBER" not found -- will not be validated
   ** Warning ** Foundation:Kiva="SLAB DETAILS", no Interior Horizontal Insulation Material Name defined
   **   ~~~   ** Interior Horizontal Insulation Depth will not be used.
   ** Warning ** Foundation:Kiva="SLAB DETAILS", no Exterior Horizontal Insulation Material Name defined
   **   ~~~   ** Exterior Horizontal Insulation Width will not be used.
   ** Warning ** Foundation:Kiva="SLAB DETAILS", no Footing Material Name defined
   **   ~~~   ** Footing Depth will not be used.
   ** Warning ** GetSurfaceData: Construction INTERIOR FLOOR of interzone surface DF56F9 does not have the same materials in the reverse order as the construction INTERIOR FLOOR of adjacent surface 316250
   **   ~~~   ** or the properties of the reversed layers are not correct due to differing layer front and back side values
   **   ~~~   ** ...but Nominal U values are similar, diff=[0.0000] ... simulation proceeds.
   **   ~~~   ** ...if the two zones are expected to have significantly different temperatures, the proper "reverse" construction should be created.
   **   ~~~   ** ...this problem for this pair will not be reported again.
   ** Warning ** SurfaceProperty:ExposedFoundationPerimeter: SLAB, TOTALEXPOSEDPERIMETER set as calculation method, but a value has been set for Exposed Perimeter Fraction. This value will be ignored.
   ** Warning ** CheckUsedConstructions: There are 68 nominally unused constructions in input.
   **   ~~~   ** For explicit details on each unused construction, use Output:Diagnostics,DisplayExtraWarnings;
   ** Warning ** GeneratorController constructor ElectricLoadCenter:Generators, Availability Schedule for Generator:PVWatts 'PV ARRAY' will be be ignored (runs all the time).
   ** Warning ** Output:Meter:MeterFileOnly: invalid Key Name="NATURALGAS:FACILITY" - not found.
   ************* Testing Individual Branch Integrity
   ************* All Branches passed integrity testing
   ************* Testing Individual Supply Air Path Integrity
   ************* All Supply Air Paths passed integrity testing
   ************* Testing Individual Return Air Path Integrity
   ************* All Return Air Paths passed integrity testing
   ************* No node connection errors were found.
   ** Warning ** For ZoneHVAC:EnergyRecoveryVentilator "GROUNDUNIT ERV" there is unbalanced exhaust air flow.
   **   ~~~   ** ... The exhaust air mass flow rate = 7.455400E-003
   **   ~~~   ** ... The  supply air mass flow rate = 5.332693E-003
   **   ~~~   **  Environment=GREAT FALLS INTL ARPT ANN HTG 99.6% CONDNS DB HVAC Sizing Pass 1, at Simulation time=01/21 00:00 - 00:15
   **   ~~~   ** ... Unless there is balancing infiltration / ventilation air flow, this will result in
   **   ~~~   ** ... load due to induced outside air being neglected in the simulation.
   ** Warning ** For ZoneHVAC:EnergyRecoveryVentilator "FLOOR3 ERV" there is unbalanced exhaust air flow.
   **   ~~~   ** ... The exhaust air mass flow rate = 7.455400E-003
   **   ~~~   ** ... The  supply air mass flow rate = 5.332693E-003
   **   ~~~   **  Environment=GREAT FALLS INTL ARPT ANN HTG 99.6% CONDNS DB HVAC Sizing Pass 1, at Simulation time=01/21 00:00 - 00:15
   **   ~~~   ** ... Unless there is balancing infiltration / ventilation air flow, this will result in
   **   ~~~   ** ... load due to induced outside air being neglected in the simulation.
   ** Warning ** For ZoneHVAC:EnergyRecoveryVentilator "FLOOR2 ERV" there is unbalanced exhaust air flow.
   **   ~~~   ** ... The exhaust air mass flow rate = 7.455400E-003
   **   ~~~   ** ... The  supply air mass flow rate = 5.332693E-003
   **   ~~~   **  Environment=GREAT FALLS INTL ARPT ANN HTG 99.6% CONDNS DB HVAC Sizing Pass 1, at Simulation time=01/21 00:00 - 00:15
   **   ~~~   ** ... Unless there is balancing infiltration / ventilation air flow, this will result in
   **   ~~~   ** ... load due to induced outside air being neglected in the simulation.
   ** Warning ** HeatExchanger:AirToAir:SensibleAndLatent "GROUNDUNIT ERV_CORE"
   **   ~~~   ** Average air volume flow rate is <50% or >130% of the nominal HX supply air volume flow rate.
   **   ~~~   ** Air volume flow rate ratio = 0.151. Environment=GREAT FALLS INTL ARPT ANN HTG 99.6% CONDNS DB HVAC Sizing Pass 1, at Simulation time=01/21 00:00 - 00:15
   ** Warning ** HeatExchanger:AirToAir:SensibleAndLatent "FLOOR3 ERV_CORE"
   **   ~~~   ** Average air volume flow rate is <50% or >130% of the nominal HX supply air volume flow rate.
   **   ~~~   ** Air volume flow rate ratio = 0.151. Environment=GREAT FALLS INTL ARPT ANN HTG 99.6% CONDNS DB HVAC Sizing Pass 1, at Simulation time=01/21 00:00 - 00:15
   ** Warning ** HeatExchanger:AirToAir:SensibleAndLatent "FLOOR2 ERV_CORE"
   **   ~~~   ** Average air volume flow rate is <50% or >130% of the nominal HX supply air volume flow rate.
   **   ~~~   ** Air volume flow rate ratio = 0.151. Environment=GREAT FALLS INTL ARPT ANN HTG 99.6% CONDNS DB HVAC Sizing Pass 1, at Simulation time=01/21 00:00 - 00:15
   ************* Beginning Simulation
   ** Warning ** ZoneHVAC:PackagedTerminalHeatPump "FLOOR2_PTHP"
   **   ~~~   **  Iteration limit exceeded calculating packaged terminal unit part-load ratio, maximum iterations = 500
   **   ~~~   **  Part-load ratio returned = 2.053E-003 Environment=ANNUAL, at Simulation time=01/02 16:00 - 16:15
   **   ~~~   **  Load requested = 26.04403, Load delivered = 18.02931
   ** Warning ** CalcWaterThermalTankMixed: WaterHeater:Mixed = 'FLOOR2_ELECTRICWATERHEATER_50GAL':  Temperature of tank < 2C indicates of possibility of freeze. Tank Temperature = 1.99 C.
   **   ~~~   **  Environment=ANNUAL, at Simulation time=01/09 11:30 - 11:45
   ** Warning ** CalcWaterThermalTankMixed: WaterHeater:Mixed = 'FLOOR3_ELECTRICWATERHEATER_50GAL':  Temperature of tank < 2C indicates of possibility of freeze. Tank Temperature = 1.99 C.
   **   ~~~   **  Environment=ANNUAL, at Simulation time=01/10 19:45 - 20:00
   ** Warning ** ZoneHVAC:PackagedTerminalHeatPump "FLOOR3_PTHP"
   **   ~~~   **  Iteration limit exceeded calculating packaged terminal unit part-load ratio, maximum iterations = 500
   **   ~~~   **  Part-load ratio returned = 2.048E-003 Environment=ANNUAL, at Simulation time=01/13 17:15 - 17:30
   **   ~~~   **  Load requested = 17.46904, Load delivered = 10.16804
   ** Warning ** ZoneHVAC:PackagedTerminalHeatPump "GROUNDUNIT_PTHP"
   **   ~~~   **  Iteration limit exceeded calculating packaged terminal unit part-load ratio, maximum iterations = 500
   **   ~~~   **  Part-load ratio returned = 2.046E-003 Environment=ANNUAL, at Simulation time=02/18 13:00 - 13:15
   **   ~~~   **  Load requested = 11.03321, Load delivered = 5.09376
   ** Warning ** Temperature out of range [-100. to 200.] (PsyPsatFnTemp)
   **   ~~~   **  Routine=PsyTwbFnTdbWPb, Environment=ANNUAL, at Simulation time=04/06 01:00 - 01:15
   **   ~~~   **  Input Temperature=-1900.46
   ************* Simulation Error Summary *************
   ************* There are 1 unused objects in input.
   ************* Use Output:Diagnostics,DisplayUnusedObjects; to see them.
   ************* There are 1 unused schedules in input.
   ************* Use Output:Diagnostics,DisplayUnusedSchedules; to see them.
   *************
   ************* ===== Recurring Error Summary =====
   ************* The following recurring error messages occurred.
   *************
   *************  ** Warning ** HeatExchanger:AirToAir:SensibleAndLatent "GROUNDUNIT ERV_CORE":  Average air volume flow rate is <50% or >130% warning continues. Air flow rate ratio statistics follow.
   *************  **   ~~~   **   This error occurred 41413 total times;
   *************  **   ~~~   **   during Warmup 0 times;
   *************  **   ~~~   **   during Sizing 0 times.
   *************  **   ~~~   **   Max=0.155367  Min=0.146821
   *************
   *************  ** Warning ** HeatExchanger:AirToAir:SensibleAndLatent "FLOOR3 ERV_CORE":  Average air volume flow rate is <50% or >130% warning continues. Air flow rate ratio statistics follow.
   *************  **   ~~~   **   This error occurred 41413 total times;
   *************  **   ~~~   **   during Warmup 0 times;
   *************  **   ~~~   **   during Sizing 0 times.
   *************  **   ~~~   **   Max=0.155367  Min=0.146821
   *************
   *************  ** Warning ** HeatExchanger:AirToAir:SensibleAndLatent "FLOOR2 ERV_CORE":  Average air volume flow rate is <50% or >130% warning continues. Air flow rate ratio statistics follow.
   *************  **   ~~~   **   This error occurred 41413 total times;
   *************  **   ~~~   **   during Warmup 0 times;
   *************  **   ~~~   **   during Sizing 0 times.
   *************  **   ~~~   **   Max=0.155367  Min=0.146821
   *************
   *************  ** Warning ** ZoneHVAC:PackagedTerminalHeatPump "FLOOR2_PTHP" - Iteration limit exceeded error continues...
   *************  **   ~~~   **   This error occurred 87 total times;
   *************  **   ~~~   **   during Warmup 0 times;
   *************  **   ~~~   **   during Sizing 0 times.
   *************  **   ~~~   **   Max=53.683704 {W}  Min=0.576778 {W}
   *************
   *************  ** Warning ** WaterHeater:Mixed = 'FLOOR2_ELECTRICWATERHEATER_50GAL':  Temperature of tank < 2C indicates of possibility of freeze
   *************  **   ~~~   **   This error occurred 706 total times;
   *************  **   ~~~   **   during Warmup 0 times;
   *************  **   ~~~   **   during Sizing 0 times.
   *************  **   ~~~   **   Max=1.9999 {C}  Min=1.5002 {C}
   *************
   *************  ** Warning ** WaterHeater:Mixed = 'FLOOR3_ELECTRICWATERHEATER_50GAL':  Temperature of tank < 2C indicates of possibility of freeze
   *************  **   ~~~   **   This error occurred 414 total times;
   *************  **   ~~~   **   during Warmup 0 times;
   *************  **   ~~~   **   during Sizing 0 times.
   *************  **   ~~~   **   Max=1.997299 {C}  Min=1.501762 {C}
   *************
   *************  ** Warning ** ZoneHVAC:PackagedTerminalHeatPump "FLOOR3_PTHP" - Iteration limit exceeded error continues...
   *************  **   ~~~   **   This error occurred 66 total times;
   *************  **   ~~~   **   during Warmup 0 times;
   *************  **   ~~~   **   during Sizing 0 times.
   *************  **   ~~~   **   Max=24.58329 {W}  Min=0.266226 {W}
   *************
   *************  ** Warning ** ZoneHVAC:PackagedTerminalHeatPump "GROUNDUNIT_PTHP" - Iteration limit exceeded error continues...
   *************  **   ~~~   **   This error occurred 45 total times;
   *************  **   ~~~   **   during Warmup 0 times;
   *************  **   ~~~   **   during Sizing 0 times.
   *************  **   ~~~   **   Max=12.836471 {W}  Min=0.1388 {W}
   *************
   *************  ** Warning ** Temperature out of range [-100. to 200.] (PsyPsatFnTemp)
   *************  **   ~~~   **   This error occurred 1 total times;
   *************  **   ~~~   **   during Warmup 0 times;
   *************  **   ~~~   **   during Sizing 0 times.
   *************  **   ~~~   **   Max=-1900.465149 C  Min=-1900.465149 C
   *************
   *************
   ************* ===== Final Error Summary =====
   ************* The following error categories occurred.  Consider correcting or noting.
   ************* Nominally Unused Constructions
   ************* ..The nominally unused constructions warning is provided to alert you to potential conditions that can cause
   ************* ..extra time during simulation. Each construction is calculated by the algorithm indicated in the HeatBalanceAlgorithm
   ************* ..object. You may remove the constructions indicated (when you use the DisplayExtraWarnings option).
   *************
   ************* EnergyPlus Warmup Error Summary. During Warmup: 0 Warning; 0 Severe Errors.
   ************* EnergyPlus Sizing Error Summary. During Sizing: 8 Warning; 0 Severe Errors.
   ************* EnergyPlus Completed Successfully-- 125578 Warning; 0 Severe Errors; Elapsed Time=00hr 00min 25.64sec
