Program Version,EnergyPlus, Version 9.5.0-de239b2e5f, YMD=2024.05.17 14:31,
   ************* Beginning Zone Sizing Calculations
   ** Warning ** Foundation:Kiva="SLAB DETAILS", no Interior Horizontal Insulation Material Name defined
   **   ~~~   ** Interior Horizontal Insulation Depth will not be used.
   ** Warning ** Foundation:Kiva="SLAB DETAILS", no Exterior Horizontal Insulation Material Name defined
   **   ~~~   ** Exterior Horizontal Insulation Width will not be used.
   ** Warning ** Foundation:Kiva="SLAB DETAILS", no Footing Material Name defined
   **   ~~~   ** Footing Depth will not be used.
   ** Warning ** GetSurfaceData: Construction INTERIOR FLOOR of interzone surface DF56F9 does not have the same materials in the reverse order as the construction INTERIOR FLOOR of adjacent surface 316250
   **   ~~~   ** or the properties of the reversed layers are not correct due to differing layer front and back side values
   **   ~~~   ** ...but Nominal U values are similar, diff=[0.0000] ... simulation proceeds.
   **   ~~~   ** ...if the two zones are expected to have significantly different temperatures, the proper "reverse" construction should be created.
   **   ~~~   ** ...this problem for this pair will not be reported again.
   ** Warning ** SurfaceProperty:ExposedFoundationPerimeter: SLAB, TOTALEXPOSEDPERIMETER set as calculation method, but a value has been set for Exposed Perimeter Fraction. This value will be ignored.
   ** Warning ** CheckUsedConstructions: There are 68 nominally unused constructions in input.
   **   ~~~   ** For explicit details on each unused construction, use Output:Diagnostics,DisplayExtraWarnings;
   ** Warning ** GeneratorController constructor ElectricLoadCenter:Generators, Availability Schedule for Generator:PVWatts 'PV ARRAY' will be be ignored (runs all the time).
   ** Warning ** AirLoopHVAC:UnitarySystem = GROUNDUNIT_GASHEAT_DXAC_FURNACE
   **   ~~~   ** Method used to determine the cooling supply air flow rate is not specified when cooling coil is present.
   ** Warning ** AirLoopHVAC:UnitarySystem = GROUNDUNIT_GASHEAT_DXAC_FURNACE
   **   ~~~   ** Method used to determine the heating supply air flow rate is not specified when heating coil is present.
   ** Warning ** AirLoopHVAC:UnitarySystem = FLOOR3_GASHEAT_DXAC_FURNACE
   **   ~~~   ** Method used to determine the cooling supply air flow rate is not specified when cooling coil is present.
   ** Warning ** AirLoopHVAC:UnitarySystem = FLOOR3_GASHEAT_DXAC_FURNACE
   **   ~~~   ** Method used to determine the heating supply air flow rate is not specified when heating coil is present.
   ** Warning ** AirLoopHVAC:UnitarySystem = FLOOR2_GASHEAT_DXAC_FURNACE
   **   ~~~   ** Method used to determine the cooling supply air flow rate is not specified when cooling coil is present.
   ** Warning ** AirLoopHVAC:UnitarySystem = FLOOR2_GASHEAT_DXAC_FURNACE
   **   ~~~   ** Method used to determine the heating supply air flow rate is not specified when heating coil is present.
   ************* Testing Individual Branch Integrity
   ************* All Branches passed integrity testing
   ************* Testing Individual Supply Air Path Integrity
   ************* All Supply Air Paths passed integrity testing
   ************* Testing Individual Return Air Path Integrity
   ************* All Return Air Paths passed integrity testing
   ************* No node connection errors were found.
   ** Warning ** For ZoneHVAC:EnergyRecoveryVentilator "GROUNDUNIT ERV" there is unbalanced exhaust air flow.
   **   ~~~   ** ... The exhaust air mass flow rate = 2.236621E-002
   **   ~~~   ** ... The  supply air mass flow rate = 1.599808E-002
   **   ~~~   **  Environment=GREAT FALLS INTL ARPT ANN HTG 99.6% CONDNS DB HVAC Sizing Pass 1, at Simulation time=01/21 00:00 - 00:15
   **   ~~~   ** ... Unless there is balancing infiltration / ventilation air flow, this will result in
   **   ~~~   ** ... load due to induced outside air being neglected in the simulation.
   ** Warning ** For ZoneHVAC:EnergyRecoveryVentilator "FLOOR3 ERV" there is unbalanced exhaust air flow.
   **   ~~~   ** ... The exhaust air mass flow rate = 2.236621E-002
   **   ~~~   ** ... The  supply air mass flow rate = 1.599808E-002
   **   ~~~   **  Environment=GREAT FALLS INTL ARPT ANN HTG 99.6% CONDNS DB HVAC Sizing Pass 1, at Simulation time=01/21 00:00 - 00:15
   **   ~~~   ** ... Unless there is balancing infiltration / ventilation air flow, this will result in
   **   ~~~   ** ... load due to induced outside air being neglected in the simulation.
   ** Warning ** For ZoneHVAC:EnergyRecoveryVentilator "FLOOR2 ERV" there is unbalanced exhaust air flow.
   **   ~~~   ** ... The exhaust air mass flow rate = 2.236621E-002
   **   ~~~   ** ... The  supply air mass flow rate = 1.599808E-002
   **   ~~~   **  Environment=GREAT FALLS INTL ARPT ANN HTG 99.6% CONDNS DB HVAC Sizing Pass 1, at Simulation time=01/21 00:00 - 00:15
   **   ~~~   ** ... Unless there is balancing infiltration / ventilation air flow, this will result in
   **   ~~~   ** ... load due to induced outside air being neglected in the simulation.
   ** Warning ** HeatExchanger:AirToAir:SensibleAndLatent "GROUNDUNIT ERV_CORE"
   **   ~~~   ** Average air volume flow rate is <50% or >130% of the nominal HX supply air volume flow rate.
   **   ~~~   ** Air volume flow rate ratio = 0.452. Environment=GREAT FALLS INTL ARPT ANN HTG 99.6% CONDNS DB HVAC Sizing Pass 1, at Simulation time=01/21 00:00 - 00:15
   ** Warning ** HeatExchanger:AirToAir:SensibleAndLatent "FLOOR3 ERV_CORE"
   **   ~~~   ** Average air volume flow rate is <50% or >130% of the nominal HX supply air volume flow rate.
   **   ~~~   ** Air volume flow rate ratio = 0.452. Environment=GREAT FALLS INTL ARPT ANN HTG 99.6% CONDNS DB HVAC Sizing Pass 1, at Simulation time=01/21 00:00 - 00:15
   ** Warning ** HeatExchanger:AirToAir:SensibleAndLatent "FLOOR2 ERV_CORE"
   **   ~~~   ** Average air volume flow rate is <50% or >130% of the nominal HX supply air volume flow rate.
   **   ~~~   ** Air volume flow rate ratio = 0.452. Environment=GREAT FALLS INTL ARPT ANN HTG 99.6% CONDNS DB HVAC Sizing Pass 1, at Simulation time=01/21 00:00 - 00:15
   ************* Beginning Simulation
   ** Warning ** CalcDoe2DXCoil: Coil:Cooling:DX:SingleSpeed "FLOOR3FURNACE_DXAC_COIL" - Air-cooled condenser inlet dry-bulb temperature below 0 C. Outdoor dry-bulb temperature = -0.30
   **   ~~~   **  ... Occurrence info = ANNUAL, 02/21 20:15 - 20:30
   **   ~~~   ** ... Operation at low ambient temperatures may require special performance curves.
   ** Warning ** Temperature out of range [-100. to 200.] (PsyPsatFnTemp)
   **   ~~~   **  Routine=PsyTwbFnTdbWPb, Environment=ANNUAL, at Simulation time=04/06 01:00 - 01:15
   **   ~~~   **  Input Temperature=-1900.46
   ** Warning ** CalcDoe2DXCoil: Coil:Cooling:DX:SingleSpeed "GROUNDUNITFURNACE_DXAC_COIL" - Air-cooled condenser inlet dry-bulb temperature below 0 C. Outdoor dry-bulb temperature = -0.28
   **   ~~~   **  ... Occurrence info = ANNUAL, 10/10 20:00 - 20:15
   **   ~~~   ** ... Operation at low ambient temperatures may require special performance curves.
   ************* Simulation Error Summary *************
   ************* There are 1 unused objects in input.
   ************* Use Output:Diagnostics,DisplayUnusedObjects; to see them.
   ************* There are 1 unused schedules in input.
   ************* There are 1 unused week schedules in input.
   ************* There are 1 unused day schedules in input.
   ************* Use Output:Diagnostics,DisplayUnusedSchedules; to see them.
   *************
   ************* ===== Recurring Error Summary =====
   ************* The following recurring error messages occurred.
   *************
   *************  ** Warning ** HeatExchanger:AirToAir:SensibleAndLatent "GROUNDUNIT ERV_CORE":  Average air volume flow rate is <50% or >130% warning continues. Air flow rate ratio statistics follow.
   *************  **   ~~~   **   This error occurred 43047 total times;
   *************  **   ~~~   **   during Warmup 0 times;
   *************  **   ~~~   **   during Sizing 0 times.
   *************  **   ~~~   **   Max=0.466101  Min=0.440463
   *************
   *************  ** Warning ** HeatExchanger:AirToAir:SensibleAndLatent "FLOOR3 ERV_CORE":  Average air volume flow rate is <50% or >130% warning continues. Air flow rate ratio statistics follow.
   *************  **   ~~~   **   This error occurred 43047 total times;
   *************  **   ~~~   **   during Warmup 0 times;
   *************  **   ~~~   **   during Sizing 0 times.
   *************  **   ~~~   **   Max=0.466101  Min=0.440463
   *************
   *************  ** Warning ** HeatExchanger:AirToAir:SensibleAndLatent "FLOOR2 ERV_CORE":  Average air volume flow rate is <50% or >130% warning continues. Air flow rate ratio statistics follow.
   *************  **   ~~~   **   This error occurred 43047 total times;
   *************  **   ~~~   **   during Warmup 0 times;
   *************  **   ~~~   **   during Sizing 0 times.
   *************  **   ~~~   **   Max=0.466101  Min=0.440463
   *************
   *************  ** Warning ** CalcDoe2DXCoil: Coil:Cooling:DX:SingleSpeed="FLOOR3FURNACE_DXAC_COIL" - Low condenser dry-bulb temperature error continues...
   *************  **   ~~~   **   This error occurred 28 total times;
   *************  **   ~~~   **   during Warmup 0 times;
   *************  **   ~~~   **   during Sizing 0 times.
   *************  **   ~~~   **   Max=-1.000000E-001 [C]  Min=-2.2 [C]
   *************
   *************  ** Warning ** Temperature out of range [-100. to 200.] (PsyPsatFnTemp)
   *************  **   ~~~   **   This error occurred 1 total times;
   *************  **   ~~~   **   during Warmup 0 times;
   *************  **   ~~~   **   during Sizing 0 times.
   *************  **   ~~~   **   Max=-1900.465149 C  Min=-1900.465149 C
   *************
   *************  ** Warning ** CalcDoe2DXCoil: Coil:Cooling:DX:SingleSpeed="GROUNDUNITFURNACE_DXAC_COIL" - Low condenser dry-bulb temperature error continues...
   *************  **   ~~~   **   This error occurred 4 total times;
   *************  **   ~~~   **   during Warmup 0 times;
   *************  **   ~~~   **   during Sizing 0 times.
   *************  **   ~~~   **   Max=-0.275 [C]  Min=-0.825 [C]
   *************
   *************
   ************* ===== Final Error Summary =====
   ************* The following error categories occurred.  Consider correcting or noting.
   ************* Nominally Unused Constructions
   ************* ..The nominally unused constructions warning is provided to alert you to potential conditions that can cause
   ************* ..extra time during simulation. Each construction is calculated by the algorithm indicated in the HeatBalanceAlgorithm
   ************* ..object. You may remove the constructions indicated (when you use the DisplayExtraWarnings option).
   *************
   ************* EnergyPlus Warmup Error Summary. During Warmup: 0 Warning; 0 Severe Errors.
   ************* EnergyPlus Sizing Error Summary. During Sizing: 13 Warning; 0 Severe Errors.
   ************* EnergyPlus Completed Successfully-- 129193 Warning; 0 Severe Errors; Elapsed Time=00hr 00min 22.76sec
