Program Version,EnergyPlus, Version 9.5.0-de239b2e5f, YMD=2024.05.17 14:32,
   ************* Beginning Zone Sizing Calculations
   ** Warning ** Foundation:Kiva="SLAB DETAILS", no Interior Horizontal Insulation Material Name defined
   **   ~~~   ** Interior Horizontal Insulation Depth will not be used.
   ** Warning ** Foundation:Kiva="SLAB DETAILS", no Exterior Horizontal Insulation Material Name defined
   **   ~~~   ** Exterior Horizontal Insulation Width will not be used.
   ** Warning ** Foundation:Kiva="SLAB DETAILS", no Footing Material Name defined
   **   ~~~   ** Footing Depth will not be used.
   ** Warning ** GetSurfaceData: Construction INTERIOR FLOOR of interzone surface DF56F9 does not have the same materials in the reverse order as the construction INTERIOR FLOOR of adjacent surface 316250
   **   ~~~   ** or the properties of the reversed layers are not correct due to differing layer front and back side values
   **   ~~~   ** ...but Nominal U values are similar, diff=[0.0000] ... simulation proceeds.
   **   ~~~   ** ...if the two zones are expected to have significantly different temperatures, the proper "reverse" construction should be created.
   **   ~~~   ** ...this problem for this pair will not be reported again.
   ** Warning ** SurfaceProperty:ExposedFoundationPerimeter: SLAB, TOTALEXPOSEDPERIMETER set as calculation method, but a value has been set for Exposed Perimeter Fraction. This value will be ignored.
   ** Warning ** CheckUsedConstructions: There are 68 nominally unused constructions in input.
   **   ~~~   ** For explicit details on each unused construction, use Output:Diagnostics,DisplayExtraWarnings;
   ** Warning ** GeneratorController constructor ElectricLoadCenter:Generators, Availability Schedule for Generator:PVWatts 'PV ARRAY' will be be ignored (runs all the time).
   ** Warning ** Output:Meter:MeterFileOnly: invalid Key Name="NATURALGAS:FACILITY" - not found.
   ************* Testing Individual Branch Integrity
   ************* All Branches passed integrity testing
   ************* Testing Individual Supply Air Path Integrity
   ************* All Supply Air Paths passed integrity testing
   ************* Testing Individual Return Air Path Integrity
   ************* All Return Air Paths passed integrity testing
   ************* No node connection errors were found.
   ** Warning ** For ZoneHVAC:EnergyRecoveryVentilator "GROUNDUNIT ERV" there is unbalanced exhaust air flow.
   **   ~~~   ** ... The exhaust air mass flow rate = 2.236621E-002
   **   ~~~   ** ... The  supply air mass flow rate = 1.599808E-002
   **   ~~~   **  Environment=GREAT FALLS INTL ARPT ANN HTG 99.6% CONDNS DB HVAC Sizing Pass 1, at Simulation time=01/21 00:00 - 00:15
   **   ~~~   ** ... Unless there is balancing infiltration / ventilation air flow, this will result in
   **   ~~~   ** ... load due to induced outside air being neglected in the simulation.
   ** Warning ** For ZoneHVAC:EnergyRecoveryVentilator "FLOOR3 ERV" there is unbalanced exhaust air flow.
   **   ~~~   ** ... The exhaust air mass flow rate = 2.236621E-002
   **   ~~~   ** ... The  supply air mass flow rate = 1.599808E-002
   **   ~~~   **  Environment=GREAT FALLS INTL ARPT ANN HTG 99.6% CONDNS DB HVAC Sizing Pass 1, at Simulation time=01/21 00:00 - 00:15
   **   ~~~   ** ... Unless there is balancing infiltration / ventilation air flow, this will result in
   **   ~~~   ** ... load due to induced outside air being neglected in the simulation.
   ** Warning ** For ZoneHVAC:EnergyRecoveryVentilator "FLOOR2 ERV" there is unbalanced exhaust air flow.
   **   ~~~   ** ... The exhaust air mass flow rate = 2.236621E-002
   **   ~~~   ** ... The  supply air mass flow rate = 1.599808E-002
   **   ~~~   **  Environment=GREAT FALLS INTL ARPT ANN HTG 99.6% CONDNS DB HVAC Sizing Pass 1, at Simulation time=01/21 00:00 - 00:15
   **   ~~~   ** ... Unless there is balancing infiltration / ventilation air flow, this will result in
   **   ~~~   ** ... load due to induced outside air being neglected in the simulation.
   ** Warning ** HeatExchanger:AirToAir:SensibleAndLatent "GROUNDUNIT ERV_CORE"
   **   ~~~   ** Average air volume flow rate is <50% or >130% of the nominal HX supply air volume flow rate.
   **   ~~~   ** Air volume flow rate ratio = 0.452. Environment=GREAT FALLS INTL ARPT ANN HTG 99.6% CONDNS DB HVAC Sizing Pass 1, at Simulation time=01/21 00:00 - 00:15
   ** Warning ** HeatExchanger:AirToAir:SensibleAndLatent "FLOOR3 ERV_CORE"
   **   ~~~   ** Average air volume flow rate is <50% or >130% of the nominal HX supply air volume flow rate.
   **   ~~~   ** Air volume flow rate ratio = 0.452. Environment=GREAT FALLS INTL ARPT ANN HTG 99.6% CONDNS DB HVAC Sizing Pass 1, at Simulation time=01/21 00:00 - 00:15
   ** Warning ** HeatExchanger:AirToAir:SensibleAndLatent "FLOOR2 ERV_CORE"
   **   ~~~   ** Average air volume flow rate is <50% or >130% of the nominal HX supply air volume flow rate.
   **   ~~~   ** Air volume flow rate ratio = 0.452. Environment=GREAT FALLS INTL ARPT ANN HTG 99.6% CONDNS DB HVAC Sizing Pass 1, at Simulation time=01/21 00:00 - 00:15
   ************* Beginning Simulation
   ** Warning ** CalcDoe2DXCoil: Coil:Cooling:DX:SingleSpeed "FLOOR3_PTHP_DX_COOL_COIL" - Air-cooled condenser inlet dry-bulb temperature below 0 C. Outdoor dry-bulb temperature = -0.58
   **   ~~~   **  ... Occurrence info = ANNUAL, 01/03 16:30 - 16:45
   **   ~~~   ** ... Operation at low ambient temperatures may require special performance curves.
   ** Warning ** ZoneHVAC:PackagedTerminalHeatPump "FLOOR3_PTHP"
   **   ~~~   **  Iteration limit exceeded calculating packaged terminal unit part-load ratio, maximum iterations = 500
   **   ~~~   **  Part-load ratio returned = 2.056E-003 Environment=ANNUAL, at Simulation time=01/05 10:15 - 10:30
   **   ~~~   **  Load requested = 7.70559, Load delivered = 12.58454
   ** Warning ** ZoneHVAC:PackagedTerminalHeatPump "GROUNDUNIT_PTHP"
   **   ~~~   **  Iteration limit exceeded calculating packaged terminal unit part-load ratio, maximum iterations = 500
   **   ~~~   **  Part-load ratio returned = 2.051E-003 Environment=ANNUAL, at Simulation time=01/12 07:15 - 07:30
   **   ~~~   **  Load requested = 7.11419, Load delivered = 10.72987
   ** Warning ** ZoneHVAC:PackagedTerminalHeatPump "FLOOR2_PTHP"
   **   ~~~   **  Iteration limit exceeded calculating packaged terminal unit part-load ratio, maximum iterations = 500
   **   ~~~   **  Part-load ratio returned = 2.055E-003 Environment=ANNUAL, at Simulation time=01/17 09:15 - 09:22
   **   ~~~   **  Load requested = 21.67277, Load delivered = 43.84152
   ** Warning ** CalcDoe2DXCoil: Coil:Cooling:DX:SingleSpeed "GROUNDUNIT_PTHP_DX_COOL_COIL" - Air-cooled condenser inlet dry-bulb temperature below 0 C. Outdoor dry-bulb temperature = -0.30
   **   ~~~   **  ... Occurrence info = ANNUAL, 02/21 20:15 - 20:30
   **   ~~~   ** ... Operation at low ambient temperatures may require special performance curves.
   ** Warning ** CalcDoe2DXCoil: Coil:Cooling:DX:SingleSpeed "FLOOR2_PTHP_DX_COOL_COIL" - Air-cooled condenser inlet dry-bulb temperature below 0 C. Outdoor dry-bulb temperature = -0.30
   **   ~~~   **  ... Occurrence info = ANNUAL, 02/21 20:15 - 20:30
   **   ~~~   ** ... Operation at low ambient temperatures may require special performance curves.
   ** Warning ** Temperature out of range [-100. to 200.] (PsyPsatFnTemp)
   **   ~~~   **  Routine=PsyTwbFnTdbWPb, Environment=ANNUAL, at Simulation time=04/06 01:00 - 01:15
   **   ~~~   **  Input Temperature=-1900.46
   ************* Simulation Error Summary *************
   ************* There are 1 unused objects in input.
   ************* Use Output:Diagnostics,DisplayUnusedObjects; to see them.
   ************* There are 1 unused schedules in input.
   ************* There are 1 unused week schedules in input.
   ************* There are 1 unused day schedules in input.
   ************* Use Output:Diagnostics,DisplayUnusedSchedules; to see them.
   *************
   ************* ===== Recurring Error Summary =====
   ************* The following recurring error messages occurred.
   *************
   *************  ** Warning ** HeatExchanger:AirToAir:SensibleAndLatent "GROUNDUNIT ERV_CORE":  Average air volume flow rate is <50% or >130% warning continues. Air flow rate ratio statistics follow.
   *************  **   ~~~   **   This error occurred 42741 total times;
   *************  **   ~~~   **   during Warmup 0 times;
   *************  **   ~~~   **   during Sizing 0 times.
   *************  **   ~~~   **   Max=0.466101  Min=0.440463
   *************
   *************  ** Warning ** HeatExchanger:AirToAir:SensibleAndLatent "FLOOR3 ERV_CORE":  Average air volume flow rate is <50% or >130% warning continues. Air flow rate ratio statistics follow.
   *************  **   ~~~   **   This error occurred 42741 total times;
   *************  **   ~~~   **   during Warmup 0 times;
   *************  **   ~~~   **   during Sizing 0 times.
   *************  **   ~~~   **   Max=0.466101  Min=0.440463
   *************
   *************  ** Warning ** HeatExchanger:AirToAir:SensibleAndLatent "FLOOR2 ERV_CORE":  Average air volume flow rate is <50% or >130% warning continues. Air flow rate ratio statistics follow.
   *************  **   ~~~   **   This error occurred 42741 total times;
   *************  **   ~~~   **   during Warmup 0 times;
   *************  **   ~~~   **   during Sizing 0 times.
   *************  **   ~~~   **   Max=0.466101  Min=0.440463
   *************
   *************  ** Warning ** CalcDoe2DXCoil: Coil:Cooling:DX:SingleSpeed="FLOOR3_PTHP_DX_COOL_COIL" - Low condenser dry-bulb temperature error continues...
   *************  **   ~~~   **   This error occurred 418 total times;
   *************  **   ~~~   **   during Warmup 0 times;
   *************  **   ~~~   **   during Sizing 0 times.
   *************  **   ~~~   **   Max=-2.500000E-002 [C]  Min=-7.8 [C]
   *************
   *************  ** Warning ** ZoneHVAC:PackagedTerminalHeatPump "FLOOR3_PTHP" - Iteration limit exceeded error continues...
   *************  **   ~~~   **   This error occurred 49 total times;
   *************  **   ~~~   **   during Warmup 0 times;
   *************  **   ~~~   **   during Sizing 0 times.
   *************  **   ~~~   **   Max=21.900537 {W}  Min=0.258208 {W}
   *************
   *************  ** Warning ** ZoneHVAC:PackagedTerminalHeatPump "GROUNDUNIT_PTHP" - Iteration limit exceeded error continues...
   *************  **   ~~~   **   This error occurred 7 total times;
   *************  **   ~~~   **   during Warmup 0 times;
   *************  **   ~~~   **   during Sizing 0 times.
   *************  **   ~~~   **   Max=10.729878 {W}  Min=0.128215 {W}
   *************
   *************  ** Warning ** ZoneHVAC:PackagedTerminalHeatPump "FLOOR2_PTHP" - Iteration limit exceeded error continues...
   *************  **   ~~~   **   This error occurred 106 total times;
   *************  **   ~~~   **   during Warmup 0 times;
   *************  **   ~~~   **   during Sizing 0 times.
   *************  **   ~~~   **   Max=49.221113 {W}  Min=0.566305 {W}
   *************
   *************  ** Warning ** CalcDoe2DXCoil: Coil:Cooling:DX:SingleSpeed="GROUNDUNIT_PTHP_DX_COOL_COIL" - Low condenser dry-bulb temperature error continues...
   *************  **   ~~~   **   This error occurred 238 total times;
   *************  **   ~~~   **   during Warmup 0 times;
   *************  **   ~~~   **   during Sizing 0 times.
   *************  **   ~~~   **   Max=-2.500000E-002 [C]  Min=-5.2 [C]
   *************
   *************  ** Warning ** CalcDoe2DXCoil: Coil:Cooling:DX:SingleSpeed="FLOOR2_PTHP_DX_COOL_COIL" - Low condenser dry-bulb temperature error continues...
   *************  **   ~~~   **   This error occurred 41 total times;
   *************  **   ~~~   **   during Warmup 0 times;
   *************  **   ~~~   **   during Sizing 0 times.
   *************  **   ~~~   **   Max=-1.000000E-001 [C]  Min=-4.6 [C]
   *************
   *************  ** Warning ** Temperature out of range [-100. to 200.] (PsyPsatFnTemp)
   *************  **   ~~~   **   This error occurred 1 total times;
   *************  **   ~~~   **   during Warmup 0 times;
   *************  **   ~~~   **   during Sizing 0 times.
   *************  **   ~~~   **   Max=-1900.465149 C  Min=-1900.465149 C
   *************
   *************
   ************* ===== Final Error Summary =====
   ************* The following error categories occurred.  Consider correcting or noting.
   ************* Nominally Unused Constructions
   ************* ..The nominally unused constructions warning is provided to alert you to potential conditions that can cause
   ************* ..extra time during simulation. Each construction is calculated by the algorithm indicated in the HeatBalanceAlgorithm
   ************* ..object. You may remove the constructions indicated (when you use the DisplayExtraWarnings option).
   *************
   ************* EnergyPlus Warmup Error Summary. During Warmup: 0 Warning; 0 Severe Errors.
   ************* EnergyPlus Sizing Error Summary. During Sizing: 7 Warning; 0 Severe Errors.
   ************* EnergyPlus Completed Successfully-- 129100 Warning; 0 Severe Errors; Elapsed Time=00hr 00min 25.32sec
