Program Version,EnergyPlus, Version 9.5.0-de239b2e5f, YMD=2024.05.14 18:21
