Program Version,EnergyPlus, Version 9.5.0-de239b2e5f, YMD=2023.06.01 15:28,
   ************* Beginning Zone Sizing Calculations
   ** Warning ** Weather file location will be used rather than entered (IDF) Location object.
   **   ~~~   ** ..Location object=F40E7A
   **   ~~~   ** ..Weather File Location=Chicago Midway Ap IL USA TMY3 WMO#=725340
   **   ~~~   ** ..due to location differences, Latitude difference=[41.78] degrees, Longitude difference=[87.75] degrees.
   **   ~~~   ** ..Time Zone difference=[6.0] hour(s), Elevation difference=[18600.00] percent, [186.00] meters.
   ** Warning ** Foundation:Kiva="SLAB DETAILS", no Interior Horizontal Insulation Material Name defined
   **   ~~~   ** Interior Horizontal Insulation Depth will not be used.
   ** Warning ** Foundation:Kiva="SLAB DETAILS", no Exterior Horizontal Insulation Material Name defined
   **   ~~~   ** Exterior Horizontal Insulation Width will not be used.
   ** Warning ** Foundation:Kiva="SLAB DETAILS", no Footing Material Name defined
   **   ~~~   ** Footing Depth will not be used.
   ** Warning ** Foundation:Kiva="CRAWLSPACE DETAILS", no Interior Horizontal Insulation Material Name defined
   **   ~~~   ** Interior Horizontal Insulation Depth will not be used.
   ** Warning ** Foundation:Kiva="CRAWLSPACE DETAILS", no Exterior Horizontal Insulation Material Name defined
   **   ~~~   ** Exterior Horizontal Insulation Width will not be used.
   ** Warning ** Foundation:Kiva="CRAWLSPACE DETAILS", no Footing Material Name defined
   **   ~~~   ** Footing Depth will not be used.
   ** Severe  ** RoofCeiling:Detailed="E58B8C" references an outside boundary surface that cannot be found:SLAB DETAILS
   **  Fatal  ** GetSurfaceData: Errors discovered, program terminates.
   ...Summary of Errors that led to program termination:
   ..... Reference severe error count=1
   ..... Last severe error=RoofCeiling:Detailed="E58B8C" references an outside boundary surface that cannot be found:SLAB DETAILS
   ************* Warning:  Node connection errors not checked - most system input has not been read (see previous warning).
   ************* Fatal error -- final processing.  Program exited before simulations began.  See previous error messages.
   ************* EnergyPlus Warmup Error Summary. During Warmup: 0 Warning; 0 Severe Errors.
   ************* EnergyPlus Sizing Error Summary. During Sizing: 7 Warning; 1 Severe Errors.
   ************* EnergyPlus Terminated--Fatal Error Detected. 7 Warning; 1 Severe Errors; Elapsed Time=00hr 00min  0.41sec
