Program Version,EnergyPlus, Version 9.5.0-de239b2e5f, YMD=2023.05.18 17:05
