Program Version,EnergyPlus, Version 9.5.0-de239b2e5f, YMD=2024.11.24 14:23
! <Version>, Version ID
 Version, 9.5
! <Timesteps per Hour>, #TimeSteps, Minutes per TimeStep {minutes}
 Timesteps per Hour,  4, 15
! <System Convergence Limits>, Minimum System TimeStep {minutes}, Max HVAC Iterations, Minimum Plant Iterations, Maximum Plant Iterations
 System Convergence Limits, 1, 20, 2, 8
! <Simulation Control>, Do Zone Sizing, Do System Sizing, Do Plant Sizing, Do Design Days, Do Weather Simulation, Do HVAC Sizing Simulation
 Simulation Control, Yes, Yes, No, Yes, Yes, Yes
! <Performance Precision Tradeoffs>, Use Coil Direct Simulation, Zone Radiant Exchange Algorithm, Override Mode, Number of Timestep In Hour, Force Euler Method, Minimum Number of Warmup Days, Force Suppress All Begin Environment Resets, Minimum System Timestep, MaxZoneTempDiff, MaxAllowedDelTemp
 Performance Precision Tradeoffs, No, ScriptF, Normal, 4, No, 1, No, 1.0, 0.300, 2.0000E-003
! <Output Reporting Tolerances>, Tolerance for Time Heating Setpoint Not Met, Tolerance for Zone Cooling Setpoint Not Met Time
 Output Reporting Tolerances, 0.200, 0.200, 
! <Site:GroundTemperature:BuildingSurface>,Jan{C},Feb{C},Mar{C},Apr{C},May{C},Jun{C},Jul{C},Aug{C},Sep{C},Oct{C},Nov{C},Dec{C}
 Site:GroundTemperature:BuildingSurface,  18.00,  18.00,  18.00,  18.00,  18.00,  18.00,  18.00,  18.00,  18.00,  18.00,  18.00,  18.00
! <Site:GroundTemperature:FCfactorMethod>,Jan{C},Feb{C},Mar{C},Apr{C},May{C},Jun{C},Jul{C},Aug{C},Sep{C},Oct{C},Nov{C},Dec{C}
 Site:GroundTemperature:FCfactorMethod,  18.18,  15.96,  15.35,  15.88,  18.88,  22.24,  25.40,  27.68,  28.35,  27.28,  24.69,  21.42
! <Site:GroundTemperature:Shallow>,Jan{C},Feb{C},Mar{C},Apr{C},May{C},Jun{C},Jul{C},Aug{C},Sep{C},Oct{C},Nov{C},Dec{C}
 Site:GroundTemperature:Shallow,  13.00,  13.00,  13.00,  13.00,  13.00,  13.00,  13.00,  13.00,  13.00,  13.00,  13.00,  13.00
! <Site:GroundTemperature:Deep>,Jan{C},Feb{C},Mar{C},Apr{C},May{C},Jun{C},Jul{C},Aug{C},Sep{C},Oct{C},Nov{C},Dec{C}
 Site:GroundTemperature:Deep,  16.00,  16.00,  16.00,  16.00,  16.00,  16.00,  16.00,  16.00,  16.00,  16.00,  16.00,  16.00
! <Site:GroundReflectance>,Jan{dimensionless},Feb{dimensionless},Mar{dimensionless},Apr{dimensionless},May{dimensionless},Jun{dimensionless},Jul{dimensionless},Aug{dimensionless},Sep{dimensionless},Oct{dimensionless},Nov{dimensionless},Dec{dimensionless}
 Site:GroundReflectance,  0.20,  0.20,  0.20,  0.20,  0.20,  0.20,  0.20,  0.20,  0.20,  0.20,  0.20,  0.20
! <Site:GroundReflectance:SnowModifier>, Normal, Daylighting {dimensionless}
 Site:GroundReflectance:SnowModifier,   1.000,   1.000
! <Site:GroundReflectance:Snow>,Jan{dimensionless},Feb{dimensionless},Mar{dimensionless},Apr{dimensionless},May{dimensionless},Jun{dimensionless},Jul{dimensionless},Aug{dimensionless},Sep{dimensionless},Oct{dimensionless},Nov{dimensionless},Dec{dimensionless}
 Site:GroundReflectance:Snow,  0.20,  0.20,  0.20,  0.20,  0.20,  0.20,  0.20,  0.20,  0.20,  0.20,  0.20,  0.20
! <Site:GroundReflectance:Snow:Daylighting>,Jan{dimensionless},Feb{dimensionless},Mar{dimensionless},Apr{dimensionless},May{dimensionless},Jun{dimensionless},Jul{dimensionless},Aug{dimensionless},Sep{dimensionless},Oct{dimensionless},Nov{dimensionless},Dec{dimensionless}
 Site:GroundReflectance:Snow:Daylighting,  0.20,  0.20,  0.20,  0.20,  0.20,  0.20,  0.20,  0.20,  0.20,  0.20,  0.20,  0.20
! <Environment:Weather Station>,Wind Sensor Height Above Ground {m},Wind Speed Profile Exponent {},Wind Speed Profile Boundary Layer Thickness {m},Air Temperature Sensor Height Above Ground {m},Wind Speed Modifier Coefficient-Internal,Temperature Modifier Coefficient-Internal
Environment:Weather Station,10.000,0.140,270.000,1.500,1.586,9.750E-003
! <Site:Location>, Location Name, Latitude {N+/S- Deg}, Longitude {E+/W- Deg},  Time Zone Number {GMT+/-}, Elevation {m},  Standard Pressure at Elevation {Pa}, Standard RhoAir at Elevation
Site:Location,Tampa-MacDill AFB FL USA TMY3 WMO#=747880,27.85,-82.52,-5.00,8.00,101229,1.2032
! <Site Water Mains Temperature Information>,Calculation Method{},Water Mains Temperature Schedule Name{},Annual Average Outdoor Air Temperature{C},Maximum Difference In Monthly Average Outdoor Air Temperatures{deltaC},Fixed Default Water Mains Temperature{C}
Site Water Mains Temperature Information,FixedDefault,NA,NA,NA,10.0
! <Building Information>, Building Name,North Axis {deg},Terrain,  Loads Convergence Tolerance Value,Temperature Convergence Tolerance Value,  Solar Distribution,Maximum Number of Warmup Days,Minimum Number of Warmup Days
 Building Information,p2_M_10W-20S_TampaFL_Base Elec_DC-Shd,0.000,City,4.00000E-002,0.40000,FullInteriorAndExterior,25,6
! <Inside Convection Algorithm>, Algorithm {Simple | TARP | CeilingDiffuser | AdaptiveConvectionAlgorithm}
Inside Convection Algorithm,TARP
! <Outside Convection Algorithm>, Algorithm {SimpleCombined | TARP | MoWitt | DOE-2 | AdaptiveConvectionAlgorithm}
Outside Convection Algorithm,DOE-2
! <Sky Radiance Distribution>, Value {Anisotropic}
Sky Radiance Distribution,Anisotropic
! <Zone Air Solution Algorithm>, Value {ThirdOrderBackwardDifference | AnalyticalSolution | EulerMethod}
 Zone Air Solution Algorithm, ThirdOrderBackwardDifference
! <Zone Air Carbon Dioxide Balance Simulation>, Simulation {Yes/No}, Carbon Dioxide Concentration
 Zone Air Carbon Dioxide Balance Simulation, Yes,YES
! <Zone Air Generic Contaminant Balance Simulation>, Simulation {Yes/No}, Generic Contaminant Concentration
 Zone Air Generic Contaminant Balance Simulation, No,N/A
! <Zone Air Mass Flow Balance Simulation>, Enforce Mass Balance, Adjust Zone Mixing and Return {AdjustMixingOnly | AdjustReturnOnly | AdjustMixingThenReturn | AdjustReturnThenMixing | None}, Adjust Zone Infiltration {AddInfiltration | AdjustInfiltration | None}, Infiltration Zones {MixingSourceZonesOnly | AllZones}
 Zone Air Mass Flow Balance Simulation, No,N/A,N/A,N/A
! <HVACSystemRootFindingAlgorithm>, Value {RegulaFalsi | Bisection | BisectionThenRegulaFalsi | RegulaFalsiThenBisection}
 HVACSystemRootFindingAlgorithm, RegulaFalsi
! <Environment:Site Atmospheric Variation>,Wind Speed Profile Exponent {},Wind Speed Profile Boundary Layer Thickness {m},Air Temperature Gradient Coefficient {K/m}
Environment:Site Atmospheric Variation,0.330,460.000,6.500000E-003
! <Surface Geometry>,Starting Corner,Vertex Input Direction,Coordinate System,Daylight Reference Point Coordinate System,Rectangular (Simple) Surface Coordinate System
 Surface Geometry,UpperLeftCorner,Counterclockwise,RelativeCoordinateSystem,RelativeCoordinateSystem,RelativeToZoneOrigin
! <Zone Volume Capacitance Multiplier>, Sensible Heat Capacity Multiplier, Moisture Capacity Multiplier, Carbon Dioxide Capacity Multiplier, Generic Contaminant Capacity Multiplier
Zone Volume Capacitance Multiplier,   1.000 ,   1.000,   1.000,   1.000
! <Kiva Foundation Name>, Horizontal Cells, Vertical Cells, Total Cells, Total Exposed Perimeter, Perimeter Fraction, Wall Height, Wall Construction, Floor Surface, Wall Surface(s)
SLAB DETAILS,40,20,800,36.58,1.00,0.00,<Default Footing Wall Construction>,SLAB
! <Surface Heat Transfer Algorithm>, Value {CTF - ConductionTransferFunction | EMPD - MoisturePenetrationDepthConductionTransferFunction | CondFD - ConductionFiniteDifference | HAMT - CombinedHeatAndMoistureFiniteElement} - Description,Inside Surface Max Temperature Limit{C}, Surface Convection Coefficient Lower Limit {W/m2-K}, Surface Convection Coefficient Upper Limit {W/m2-K}
Surface Heat Transfer Algorithm, CTF - ConductionTransferFunction,200,0.10,1000.0
Surface Heat Transfer Algorithm, KivaFoundation - TwoDimensionalFiniteDifference,200,0.10,1000.0
! <Shading Summary>, Number of Fixed Detached Shades, Number of Building Detached Shades, Number of Attached Shades
 Shading Summary,0,4,0
! <Zone Summary>, Number of Zones, Number of Zone Surfaces, Number of SubSurfaces
 Zone Summary,1,20,9
! <Zone Information>,Zone Name,North Axis {deg},Origin X-Coordinate {m},Origin Y-Coordinate {m},Origin Z-Coordinate {m},Centroid X-Coordinate {m},Centroid Y-Coordinate {m},Centroid Z-Coordinate {m},Type,Zone Multiplier,Zone List Multiplier,Minimum X {m},Maximum X {m},Minimum Y {m},Maximum Y {m},Minimum Z {m},Maximum Z {m},Ceiling Height {m},Volume {m3},Zone Inside Convection Algorithm {Simple-Detailed-CeilingDiffuser-TrombeWall},Zone Outside Convection Algorithm {Simple-Detailed-Tarp-MoWitt-DOE-2-BLAST}, Floor Area {m2},Exterior Gross Wall Area {m2},Exterior Net Wall Area {m2},Exterior Window Area {m2}, Number of Surfaces, Number of SubSurfaces, Number of Shading SubSurfaces,  Part of Total Building Area
 Zone Information, ZONE 1,0.0,0.00,0.00,0.00,4.57,6.10,2.62,1,1,1,0.00,9.14,0.00,12.19,-0.30,5.49,4.11,482.07,TARP,DOE-2,197.70,247.12,211.73,33.45,11,9,0,Yes
! <Zone Internal Gains Nominal>,Zone Name, Floor Area {m2},# Occupants,Area per Occupant {m2/person},Occupant per Area {person/m2},Interior Lighting {W/m2},Electric Load {W/m2},Gas Load {W/m2},Other Load {W/m2},Hot Water Eq {W/m2},Steam Equipment {W/m2},Sum Loads per Area {W/m2},Outdoor Controlled Baseboard Heat
 Zone Internal Gains Nominal, ZONE 1,197.70,0.0,N/A,0.000,0.000,0.000,0.000,0.000,0.000,0.000,0.000,No
! <Shadowing/Sun Position Calculations Annual Simulations>, Shading Calculation Method, Shading Calculation Update Frequency Method, Shading Calculation Update Frequency {days}, Maximum Figures in Shadow Overlap Calculations {}, Polygon Clipping Algorithm, Pixel Counting Resolution, Sky Diffuse Modeling Algorithm, Output External Shading Calculation Results, Disable Self-Shading Within Shading Zone Groups, Disable Self-Shading From Shading Zone Groups to Other Zones
Shadowing/Sun Position Calculations Annual Simulations,PolygonClipping,Periodic,20,15000,SutherlandHodgman,512,SimpleSkyDiffuseModeling,No,No,No
! <RoomAir Model>, Zone Name, Mixing/Mundt/UCSDDV/UCSDCV/UCSDUFI/UCSDUFE/User Defined
RoomAir Model,ZONE 1,Mixing/Well-Stirred
! <AirflowNetwork Model:Control>, No Multizone or Distribution/Multizone with Distribution/Multizone without Distribution/Multizone with Distribution only during Fan Operation
AirflowNetwork Model:Control,NoMultizoneOrDistribution
! <Environment>,Environment Name,Environment Type, Start Date, End Date, Start DayOfWeek, Duration {#days}, Source:Start DayOfWeek,  Use Daylight Saving, Use Holidays, Apply Weekend Holiday Rule,  Use Rain Values, Use Snow Values, Sky Temperature Model
! <Environment:Special Days>, Special Day Name, Special Day Type, Source, Start Date, Duration {#days}
! <Environment:Daylight Saving>, Daylight Saving Indicator, Source, Start Date, End Date
! <Environment:WarmupDays>, NumberofWarmupDays
Environment,TAMPA-MACDILL AFB ANN HTG 99.6% CONDNS DB,SizingPeriod:DesignDay,01/21,01/21,WinterDesignDay,1,N/A,N/A,N/A,N/A,N/A,N/A,Clark and Allen
Environment:Daylight Saving,No,SizingPeriod:DesignDay
Environment,TAMPA-MACDILL AFB ANN HTG 99% CONDNS DB,SizingPeriod:DesignDay,01/21,01/21,WinterDesignDay,1,N/A,N/A,N/A,N/A,N/A,N/A,Clark and Allen
Environment:Daylight Saving,No,SizingPeriod:DesignDay
Environment,TAMPA-MACDILL AFB ANN HUM_N 99.6% CONDNS DP=>MCDB,SizingPeriod:DesignDay,01/21,01/21,WinterDesignDay,1,N/A,N/A,N/A,N/A,N/A,N/A,Clark and Allen
Environment:Daylight Saving,No,SizingPeriod:DesignDay
Environment,TAMPA-MACDILL AFB ANN HUM_N 99% CONDNS DP=>MCDB,SizingPeriod:DesignDay,01/21,01/21,WinterDesignDay,1,N/A,N/A,N/A,N/A,N/A,N/A,Clark and Allen
Environment:Daylight Saving,No,SizingPeriod:DesignDay
Environment,TAMPA-MACDILL AFB ANN HTG WIND 99.6% CONDNS WS=>MCDB,SizingPeriod:DesignDay,01/21,01/21,WinterDesignDay,1,N/A,N/A,N/A,N/A,N/A,N/A,Clark and Allen
Environment:Daylight Saving,No,SizingPeriod:DesignDay
Environment,TAMPA-MACDILL AFB ANN HTG WIND 99% CONDNS WS=>MCDB,SizingPeriod:DesignDay,01/21,01/21,WinterDesignDay,1,N/A,N/A,N/A,N/A,N/A,N/A,Clark and Allen
Environment:Daylight Saving,No,SizingPeriod:DesignDay
Environment,TAMPA-MACDILL AFB ANN CLG .4% CONDNS DB=>MWB,SizingPeriod:DesignDay,08/21,08/21,SummerDesignDay,1,N/A,N/A,N/A,N/A,N/A,N/A,Clark and Allen
Environment:Daylight Saving,No,SizingPeriod:DesignDay
Environment,TAMPA-MACDILL AFB ANN CLG 1% CONDNS DB=>MWB,SizingPeriod:DesignDay,08/21,08/21,SummerDesignDay,1,N/A,N/A,N/A,N/A,N/A,N/A,Clark and Allen
Environment:Daylight Saving,No,SizingPeriod:DesignDay
Environment,TAMPA-MACDILL AFB ANN CLG 2% CONDNS DB=>MWB,SizingPeriod:DesignDay,08/21,08/21,SummerDesignDay,1,N/A,N/A,N/A,N/A,N/A,N/A,Clark and Allen
Environment:Daylight Saving,No,SizingPeriod:DesignDay
Environment,TAMPA-MACDILL AFB ANN CLG .4% CONDNS WB=>MDB,SizingPeriod:DesignDay,08/21,08/21,SummerDesignDay,1,N/A,N/A,N/A,N/A,N/A,N/A,Clark and Allen
Environment:Daylight Saving,No,SizingPeriod:DesignDay
Environment,TAMPA-MACDILL AFB ANN CLG 1% CONDNS WB=>MDB,SizingPeriod:DesignDay,08/21,08/21,SummerDesignDay,1,N/A,N/A,N/A,N/A,N/A,N/A,Clark and Allen
Environment:Daylight Saving,No,SizingPeriod:DesignDay
Environment,TAMPA-MACDILL AFB ANN CLG 2% CONDNS WB=>MDB,SizingPeriod:DesignDay,08/21,08/21,SummerDesignDay,1,N/A,N/A,N/A,N/A,N/A,N/A,Clark and Allen
Environment:Daylight Saving,No,SizingPeriod:DesignDay
Environment,TAMPA-MACDILL AFB ANN CLG .4% CONDNS DP=>MDB,SizingPeriod:DesignDay,08/21,08/21,SummerDesignDay,1,N/A,N/A,N/A,N/A,N/A,N/A,Clark and Allen
Environment:Daylight Saving,No,SizingPeriod:DesignDay
Environment,TAMPA-MACDILL AFB ANN CLG 1% CONDNS DP=>MDB,SizingPeriod:DesignDay,08/21,08/21,SummerDesignDay,1,N/A,N/A,N/A,N/A,N/A,N/A,Clark and Allen
Environment:Daylight Saving,No,SizingPeriod:DesignDay
Environment,TAMPA-MACDILL AFB ANN CLG 2% CONDNS DP=>MDB,SizingPeriod:DesignDay,08/21,08/21,SummerDesignDay,1,N/A,N/A,N/A,N/A,N/A,N/A,Clark and Allen
Environment:Daylight Saving,No,SizingPeriod:DesignDay
Environment,TAMPA-MACDILL AFB ANN CLG .4% CONDNS ENTH=>MDB,SizingPeriod:DesignDay,08/21,08/21,SummerDesignDay,1,N/A,N/A,N/A,N/A,N/A,N/A,Clark and Allen
Environment:Daylight Saving,No,SizingPeriod:DesignDay
Environment,TAMPA-MACDILL AFB ANN CLG 1% CONDNS ENTH=>MDB,SizingPeriod:DesignDay,08/21,08/21,SummerDesignDay,1,N/A,N/A,N/A,N/A,N/A,N/A,Clark and Allen
Environment:Daylight Saving,No,SizingPeriod:DesignDay
Environment,TAMPA-MACDILL AFB ANN CLG 2% CONDNS ENTH=>MDB,SizingPeriod:DesignDay,08/21,08/21,SummerDesignDay,1,N/A,N/A,N/A,N/A,N/A,N/A,Clark and Allen
Environment:Daylight Saving,No,SizingPeriod:DesignDay
Environment,ANNUAL,WeatherFileRunPeriod,01/01/2017,12/31/2017,Sunday,365,Use RunPeriod Specified Day,Yes,Yes,No,Yes,Yes,Clark and Allen
Environment:Daylight Saving,No,
Environment,TAMPA-MACDILL AFB ANN HTG 99.6% CONDNS DB HVAC Sizing Pass 1,SizingPeriod:DesignDay,01/21,01/21,WinterDesignDay,1,N/A,N/A,N/A,N/A,N/A,N/A,Clark and Allen
Environment:Daylight Saving,No,SizingPeriod:DesignDay
! <Environment:Design Day Data>, Max Dry-Bulb Temp {C}, Temp Range {dC}, Temp Range Ind Type, Hum Ind Type, Hum Ind Value at Max Temp, Hum Ind Units, Pressure {Pa}, Wind Direction {deg CW from N}, Wind Speed {m/s}, Clearness, Rain, Snow
! <Environment:Design Day Misc>,DayOfYear,ASHRAE A Coeff,ASHRAE B Coeff,ASHRAE C Coeff,Solar Constant-Annual Variation,Eq of Time {minutes}, Solar Declination Angle {deg}, Solar Model
Environment:Design Day Data,3.90,0.00,DefaultMultipliers,Wetbulb,3.90,{C},101229,10,2.8,0.00,No,No
Environment:Design Day Misc, 21,1229.0,0.1415,5.7310E-002,1.0,-11.15,-20.1,ASHRAEClearSky
Environment:WarmupDays,  6
! <Tabular Report>,Style,Unit Conversion
Tabular Report,HTML,INCHPOUND
! <Warmup Convergence Information>,Zone Name,Environment Type/Name,Average Warmup Temperature Difference {deltaC},Std Dev Warmup Temperature Difference {deltaC},Max Temperature Pass/Fail Convergence,Min Temperature Pass/Fail Convergence,Average Warmup Load Difference {W},Std Dev Warmup Load Difference {W},Heating Load Pass/Fail Convergence,Cooling Load Pass/Fail Convergence
 Warmup Convergence Information,ZONE 1,SizingPeriod: TAMPA-MACDILL AFB ANN HTG 99.6% CONDNS DB HVAC Sizing Pass 1,3.8343264677E-002,6.4416284143E-002,Pass,Pass,0.0000000000,0.0000000000,Pass,Pass
Environment,TAMPA-MACDILL AFB ANN HTG 99% CONDNS DB HVAC Sizing Pass 1,SizingPeriod:DesignDay,01/21,01/21,WinterDesignDay,1,N/A,N/A,N/A,N/A,N/A,N/A,Clark and Allen
Environment:Daylight Saving,No,SizingPeriod:DesignDay
Environment:Design Day Data,6.10,0.00,DefaultMultipliers,Wetbulb,6.10,{C},101229,10,2.8,0.00,No,No
Environment:Design Day Misc, 21,1229.0,0.1415,5.7310E-002,1.0,-11.15,-20.1,ASHRAEClearSky
Environment:WarmupDays,  6
 Warmup Convergence Information,ZONE 1,SizingPeriod: TAMPA-MACDILL AFB ANN HTG 99% CONDNS DB HVAC Sizing Pass 1,3.4262212261E-002,5.6119097863E-002,Pass,Pass,0.0000000000,0.0000000000,Pass,Pass
Environment,TAMPA-MACDILL AFB ANN HUM_N 99.6% CONDNS DP=>MCDB HVAC Sizing Pass 1,SizingPeriod:DesignDay,01/21,01/21,WinterDesignDay,1,N/A,N/A,N/A,N/A,N/A,N/A,Clark and Allen
Environment:Daylight Saving,No,SizingPeriod:DesignDay
Environment:Design Day Data,9.30,0.00,DefaultMultipliers,Dewpoint,-3.00,{C},101229,10,2.8,0.00,No,No
Environment:Design Day Misc, 21,1229.0,0.1415,5.7310E-002,1.0,-11.15,-20.1,ASHRAEClearSky
Environment:WarmupDays,  6
 Warmup Convergence Information,ZONE 1,SizingPeriod: TAMPA-MACDILL AFB ANN HUM_N 99.6% CONDNS DP=>MCDB HVAC Sizing Pass 1,2.8809047810E-002,4.4051812011E-002,Pass,Pass,0.0000000000,0.0000000000,Pass,Pass
Environment,TAMPA-MACDILL AFB ANN HUM_N 99% CONDNS DP=>MCDB HVAC Sizing Pass 1,SizingPeriod:DesignDay,01/21,01/21,WinterDesignDay,1,N/A,N/A,N/A,N/A,N/A,N/A,Clark and Allen
Environment:Daylight Saving,No,SizingPeriod:DesignDay
Environment:Design Day Data,10.30,0.00,DefaultMultipliers,Dewpoint,-1.30,{C},101229,10,2.8,0.00,No,No
Environment:Design Day Misc, 21,1229.0,0.1415,5.7310E-002,1.0,-11.15,-20.1,ASHRAEClearSky
Environment:WarmupDays,  6
 Warmup Convergence Information,ZONE 1,SizingPeriod: TAMPA-MACDILL AFB ANN HUM_N 99% CONDNS DP=>MCDB HVAC Sizing Pass 1,2.6990795846E-002,4.0671313557E-002,Pass,Pass,0.0000000000,0.0000000000,Pass,Pass
Environment,TAMPA-MACDILL AFB ANN HTG WIND 99.6% CONDNS WS=>MCDB HVAC Sizing Pass 1,SizingPeriod:DesignDay,01/21,01/21,WinterDesignDay,1,N/A,N/A,N/A,N/A,N/A,N/A,Clark and Allen
Environment:Daylight Saving,No,SizingPeriod:DesignDay
Environment:Design Day Data,15.60,0.00,DefaultMultipliers,Wetbulb,15.60,{C},101229,10,9.3,0.00,No,No
Environment:Design Day Misc, 21,1229.0,0.1415,5.7310E-002,1.0,-11.15,-20.1,ASHRAEClearSky
Environment:WarmupDays,  6
 Warmup Convergence Information,ZONE 1,SizingPeriod: TAMPA-MACDILL AFB ANN HTG WIND 99.6% CONDNS WS=>MCDB HVAC Sizing Pass 1,1.6080139820E-002,2.2094740322E-002,Pass,Pass,0.0000000000,0.0000000000,Pass,Pass
Environment,TAMPA-MACDILL AFB ANN HTG WIND 99% CONDNS WS=>MCDB HVAC Sizing Pass 1,SizingPeriod:DesignDay,01/21,01/21,WinterDesignDay,1,N/A,N/A,N/A,N/A,N/A,N/A,Clark and Allen
Environment:Daylight Saving,No,SizingPeriod:DesignDay
Environment:Design Day Data,16.20,0.00,DefaultMultipliers,Wetbulb,16.20,{C},101229,10,8.4,0.00,No,No
Environment:Design Day Misc, 21,1229.0,0.1415,5.7310E-002,1.0,-11.15,-20.1,ASHRAEClearSky
Environment:WarmupDays,  6
 Warmup Convergence Information,ZONE 1,SizingPeriod: TAMPA-MACDILL AFB ANN HTG WIND 99% CONDNS WS=>MCDB HVAC Sizing Pass 1,1.5107651354E-002,2.0449632767E-002,Pass,Pass,0.0000000000,0.0000000000,Pass,Pass
Environment,TAMPA-MACDILL AFB ANN CLG .4% CONDNS DB=>MWB HVAC Sizing Pass 1,SizingPeriod:DesignDay,08/21,08/21,SummerDesignDay,1,N/A,N/A,N/A,N/A,N/A,N/A,Clark and Allen
Environment:Daylight Saving,No,SizingPeriod:DesignDay
Environment:Design Day Data,33.70,7.70,DefaultMultipliers,Wetbulb,25.30,{C},101229,70,3.8,0.00,No,No
Environment:Design Day Misc,233,1106.3,0.2000,0.1216,1.0,-3.33,12.4,ASHRAETau
Environment:WarmupDays,  6
 Warmup Convergence Information,ZONE 1,SizingPeriod: TAMPA-MACDILL AFB ANN CLG .4% CONDNS DB=>MWB HVAC Sizing Pass 1,0.1143309654,7.1390102617E-002,Pass,Pass,0.0000000000,0.0000000000,Pass,Pass
Environment,TAMPA-MACDILL AFB ANN CLG 1% CONDNS DB=>MWB HVAC Sizing Pass 1,SizingPeriod:DesignDay,08/21,08/21,SummerDesignDay,1,N/A,N/A,N/A,N/A,N/A,N/A,Clark and Allen
Environment:Daylight Saving,No,SizingPeriod:DesignDay
Environment:Design Day Data,32.80,7.70,DefaultMultipliers,Wetbulb,25.30,{C},101229,70,3.8,0.00,No,No
Environment:Design Day Misc,233,1106.3,0.2000,0.1216,1.0,-3.33,12.4,ASHRAETau
Environment:WarmupDays,  6
 Warmup Convergence Information,ZONE 1,SizingPeriod: TAMPA-MACDILL AFB ANN CLG 1% CONDNS DB=>MWB HVAC Sizing Pass 1,0.1144893263,7.0887850662E-002,Pass,Pass,0.0000000000,0.0000000000,Pass,Pass
Environment,TAMPA-MACDILL AFB ANN CLG 2% CONDNS DB=>MWB HVAC Sizing Pass 1,SizingPeriod:DesignDay,08/21,08/21,SummerDesignDay,1,N/A,N/A,N/A,N/A,N/A,N/A,Clark and Allen
Environment:Daylight Saving,No,SizingPeriod:DesignDay
Environment:Design Day Data,32.40,7.70,DefaultMultipliers,Wetbulb,25.30,{C},101229,70,3.8,0.00,No,No
Environment:Design Day Misc,233,1106.3,0.2000,0.1216,1.0,-3.33,12.4,ASHRAETau
Environment:WarmupDays,  6
 Warmup Convergence Information,ZONE 1,SizingPeriod: TAMPA-MACDILL AFB ANN CLG 2% CONDNS DB=>MWB HVAC Sizing Pass 1,0.1145329713,7.0690256132E-002,Pass,Pass,0.0000000000,0.0000000000,Pass,Pass
Environment,TAMPA-MACDILL AFB ANN CLG .4% CONDNS WB=>MDB HVAC Sizing Pass 1,SizingPeriod:DesignDay,08/21,08/21,SummerDesignDay,1,N/A,N/A,N/A,N/A,N/A,N/A,Clark and Allen
Environment:Daylight Saving,No,SizingPeriod:DesignDay
Environment:Design Day Data,30.40,7.70,DefaultMultipliers,Wetbulb,27.50,{C},101229,70,3.8,0.00,No,No
Environment:Design Day Misc,233,1106.3,0.2000,0.1216,1.0,-3.33,12.4,ASHRAETau
Environment:WarmupDays,  6
 Warmup Convergence Information,ZONE 1,SizingPeriod: TAMPA-MACDILL AFB ANN CLG .4% CONDNS WB=>MDB HVAC Sizing Pass 1,0.1155153812,6.9927846582E-002,Pass,Pass,0.0000000000,0.0000000000,Pass,Pass
Environment,TAMPA-MACDILL AFB ANN CLG 1% CONDNS WB=>MDB HVAC Sizing Pass 1,SizingPeriod:DesignDay,08/21,08/21,SummerDesignDay,1,N/A,N/A,N/A,N/A,N/A,N/A,Clark and Allen
Environment:Daylight Saving,No,SizingPeriod:DesignDay
Environment:Design Day Data,30.30,7.70,DefaultMultipliers,Wetbulb,27.10,{C},101229,70,3.8,0.00,No,No
Environment:Design Day Misc,233,1106.3,0.2000,0.1216,1.0,-3.33,12.4,ASHRAETau
Environment:WarmupDays,  6
 Warmup Convergence Information,ZONE 1,SizingPeriod: TAMPA-MACDILL AFB ANN CLG 1% CONDNS WB=>MDB HVAC Sizing Pass 1,0.1154189272,6.9891194690E-002,Pass,Pass,0.0000000000,0.0000000000,Pass,Pass
Environment,TAMPA-MACDILL AFB ANN CLG 2% CONDNS WB=>MDB HVAC Sizing Pass 1,SizingPeriod:DesignDay,08/21,08/21,SummerDesignDay,1,N/A,N/A,N/A,N/A,N/A,N/A,Clark and Allen
Environment:Daylight Saving,No,SizingPeriod:DesignDay
Environment:Design Day Data,30.10,7.70,DefaultMultipliers,Wetbulb,26.70,{C},101229,70,3.8,0.00,No,No
Environment:Design Day Misc,233,1106.3,0.2000,0.1216,1.0,-3.33,12.4,ASHRAETau
Environment:WarmupDays,  6
 Warmup Convergence Information,ZONE 1,SizingPeriod: TAMPA-MACDILL AFB ANN CLG 2% CONDNS WB=>MDB HVAC Sizing Pass 1,0.1153376878,6.9820856889E-002,Pass,Pass,0.0000000000,0.0000000000,Pass,Pass
Environment,TAMPA-MACDILL AFB ANN CLG .4% CONDNS DP=>MDB HVAC Sizing Pass 1,SizingPeriod:DesignDay,08/21,08/21,SummerDesignDay,1,N/A,N/A,N/A,N/A,N/A,N/A,Clark and Allen
Environment:Daylight Saving,No,SizingPeriod:DesignDay
Environment:Design Day Data,29.00,7.70,DefaultMultipliers,Dewpoint,27.10,{C},101229,70,3.8,0.00,No,No
Environment:Design Day Misc,233,1106.3,0.2000,0.1216,1.0,-3.33,12.4,ASHRAETau
Environment:WarmupDays,  6
 Warmup Convergence Information,ZONE 1,SizingPeriod: TAMPA-MACDILL AFB ANN CLG .4% CONDNS DP=>MDB HVAC Sizing Pass 1,0.1155691565,6.8951983815E-002,Pass,Pass,0.0000000000,0.0000000000,Pass,Pass
Environment,TAMPA-MACDILL AFB ANN CLG 1% CONDNS DP=>MDB HVAC Sizing Pass 1,SizingPeriod:DesignDay,08/21,08/21,SummerDesignDay,1,N/A,N/A,N/A,N/A,N/A,N/A,Clark and Allen
Environment:Daylight Saving,No,SizingPeriod:DesignDay
Environment:Design Day Data,28.60,7.70,DefaultMultipliers,Dewpoint,26.20,{C},101229,70,3.8,0.00,No,No
Environment:Design Day Misc,233,1106.3,0.2000,0.1216,1.0,-3.33,12.4,ASHRAETau
Environment:WarmupDays,  6
 Warmup Convergence Information,ZONE 1,SizingPeriod: TAMPA-MACDILL AFB ANN CLG 1% CONDNS DP=>MDB HVAC Sizing Pass 1,0.1153866470,6.8716992537E-002,Pass,Pass,0.0000000000,0.0000000000,Pass,Pass
Environment,TAMPA-MACDILL AFB ANN CLG 2% CONDNS DP=>MDB HVAC Sizing Pass 1,SizingPeriod:DesignDay,08/21,08/21,SummerDesignDay,1,N/A,N/A,N/A,N/A,N/A,N/A,Clark and Allen
Environment:Daylight Saving,No,SizingPeriod:DesignDay
Environment:Design Day Data,28.50,7.70,DefaultMultipliers,Dewpoint,26.00,{C},101229,70,3.8,0.00,No,No
Environment:Design Day Misc,233,1106.3,0.2000,0.1216,1.0,-3.33,12.4,ASHRAETau
Environment:WarmupDays,  6
 Warmup Convergence Information,ZONE 1,SizingPeriod: TAMPA-MACDILL AFB ANN CLG 2% CONDNS DP=>MDB HVAC Sizing Pass 1,0.1153456349,6.8667320914E-002,Pass,Pass,0.0000000000,0.0000000000,Pass,Pass
Environment,TAMPA-MACDILL AFB ANN CLG .4% CONDNS ENTH=>MDB HVAC Sizing Pass 1,SizingPeriod:DesignDay,08/21,08/21,SummerDesignDay,1,N/A,N/A,N/A,N/A,N/A,N/A,Clark and Allen
Environment:Daylight Saving,No,SizingPeriod:DesignDay
Environment:Design Day Data,30.70,7.70,DefaultMultipliers,Enthalpy,87000.00,{J/kgDryAir},101229,70,3.8,0.00,No,No
Environment:Design Day Misc,233,1106.3,0.2000,0.1216,1.0,-3.33,12.4,ASHRAETau
Environment:WarmupDays,  6
 Warmup Convergence Information,ZONE 1,SizingPeriod: TAMPA-MACDILL AFB ANN CLG .4% CONDNS ENTH=>MDB HVAC Sizing Pass 1,0.1154186964,7.0077330176E-002,Pass,Pass,0.0000000000,0.0000000000,Pass,Pass
Environment,TAMPA-MACDILL AFB ANN CLG 1% CONDNS ENTH=>MDB HVAC Sizing Pass 1,SizingPeriod:DesignDay,08/21,08/21,SummerDesignDay,1,N/A,N/A,N/A,N/A,N/A,N/A,Clark and Allen
Environment:Daylight Saving,No,SizingPeriod:DesignDay
Environment:Design Day Data,30.30,7.70,DefaultMultipliers,Enthalpy,84800.00,{J/kgDryAir},101229,70,3.8,0.00,No,No
Environment:Design Day Misc,233,1106.3,0.2000,0.1216,1.0,-3.33,12.4,ASHRAETau
Environment:WarmupDays,  6
 Warmup Convergence Information,ZONE 1,SizingPeriod: TAMPA-MACDILL AFB ANN CLG 1% CONDNS ENTH=>MDB HVAC Sizing Pass 1,0.1153864530,6.9894668228E-002,Pass,Pass,0.0000000000,0.0000000000,Pass,Pass
Environment,TAMPA-MACDILL AFB ANN CLG 2% CONDNS ENTH=>MDB HVAC Sizing Pass 1,SizingPeriod:DesignDay,08/21,08/21,SummerDesignDay,1,N/A,N/A,N/A,N/A,N/A,N/A,Clark and Allen
Environment:Daylight Saving,No,SizingPeriod:DesignDay
Environment:Design Day Data,30.20,7.70,DefaultMultipliers,Enthalpy,82900.00,{J/kgDryAir},101229,70,3.8,0.00,No,No
Environment:Design Day Misc,233,1106.3,0.2000,0.1216,1.0,-3.33,12.4,ASHRAETau
Environment:WarmupDays,  6
 Warmup Convergence Information,ZONE 1,SizingPeriod: TAMPA-MACDILL AFB ANN CLG 2% CONDNS ENTH=>MDB HVAC Sizing Pass 1,0.1152917871,6.9866197308E-002,Pass,Pass,0.0000000000,0.0000000000,Pass,Pass
Environment,TAMPA-MACDILL AFB ANN HTG 99.6% CONDNS DB,SizingPeriod:DesignDay,01/21,01/21,WinterDesignDay,1,N/A,N/A,N/A,N/A,N/A,N/A,Clark and Allen
Environment:Daylight Saving,No,SizingPeriod:DesignDay
Environment:Design Day Data,3.90,0.00,DefaultMultipliers,Wetbulb,3.90,{C},101229,10,2.8,0.00,No,No
Environment:Design Day Misc, 21,1229.0,0.1415,5.7310E-002,1.0,-11.15,-20.1,ASHRAEClearSky
Environment,TAMPA-MACDILL AFB ANN HTG 99% CONDNS DB,SizingPeriod:DesignDay,01/21,01/21,WinterDesignDay,1,N/A,N/A,N/A,N/A,N/A,N/A,Clark and Allen
Environment:Daylight Saving,No,SizingPeriod:DesignDay
Environment:Design Day Data,6.10,0.00,DefaultMultipliers,Wetbulb,6.10,{C},101229,10,2.8,0.00,No,No
Environment:Design Day Misc, 21,1229.0,0.1415,5.7310E-002,1.0,-11.15,-20.1,ASHRAEClearSky
Environment,TAMPA-MACDILL AFB ANN HUM_N 99.6% CONDNS DP=>MCDB,SizingPeriod:DesignDay,01/21,01/21,WinterDesignDay,1,N/A,N/A,N/A,N/A,N/A,N/A,Clark and Allen
Environment:Daylight Saving,No,SizingPeriod:DesignDay
Environment:Design Day Data,9.30,0.00,DefaultMultipliers,Dewpoint,-3.00,{C},101229,10,2.8,0.00,No,No
Environment:Design Day Misc, 21,1229.0,0.1415,5.7310E-002,1.0,-11.15,-20.1,ASHRAEClearSky
Environment,TAMPA-MACDILL AFB ANN HUM_N 99% CONDNS DP=>MCDB,SizingPeriod:DesignDay,01/21,01/21,WinterDesignDay,1,N/A,N/A,N/A,N/A,N/A,N/A,Clark and Allen
Environment:Daylight Saving,No,SizingPeriod:DesignDay
Environment:Design Day Data,10.30,0.00,DefaultMultipliers,Dewpoint,-1.30,{C},101229,10,2.8,0.00,No,No
Environment:Design Day Misc, 21,1229.0,0.1415,5.7310E-002,1.0,-11.15,-20.1,ASHRAEClearSky
Environment,TAMPA-MACDILL AFB ANN HTG WIND 99.6% CONDNS WS=>MCDB,SizingPeriod:DesignDay,01/21,01/21,WinterDesignDay,1,N/A,N/A,N/A,N/A,N/A,N/A,Clark and Allen
Environment:Daylight Saving,No,SizingPeriod:DesignDay
Environment:Design Day Data,15.60,0.00,DefaultMultipliers,Wetbulb,15.60,{C},101229,10,9.3,0.00,No,No
Environment:Design Day Misc, 21,1229.0,0.1415,5.7310E-002,1.0,-11.15,-20.1,ASHRAEClearSky
Environment,TAMPA-MACDILL AFB ANN HTG WIND 99% CONDNS WS=>MCDB,SizingPeriod:DesignDay,01/21,01/21,WinterDesignDay,1,N/A,N/A,N/A,N/A,N/A,N/A,Clark and Allen
Environment:Daylight Saving,No,SizingPeriod:DesignDay
Environment:Design Day Data,16.20,0.00,DefaultMultipliers,Wetbulb,16.20,{C},101229,10,8.4,0.00,No,No
Environment:Design Day Misc, 21,1229.0,0.1415,5.7310E-002,1.0,-11.15,-20.1,ASHRAEClearSky
Environment,TAMPA-MACDILL AFB ANN CLG .4% CONDNS DB=>MWB,SizingPeriod:DesignDay,08/21,08/21,SummerDesignDay,1,N/A,N/A,N/A,N/A,N/A,N/A,Clark and Allen
Environment:Daylight Saving,No,SizingPeriod:DesignDay
Environment:Design Day Data,33.70,7.70,DefaultMultipliers,Wetbulb,25.30,{C},101229,70,3.8,0.00,No,No
Environment:Design Day Misc,233,1106.3,0.2000,0.1216,1.0,-3.33,12.4,ASHRAETau
Environment,TAMPA-MACDILL AFB ANN CLG 1% CONDNS DB=>MWB,SizingPeriod:DesignDay,08/21,08/21,SummerDesignDay,1,N/A,N/A,N/A,N/A,N/A,N/A,Clark and Allen
Environment:Daylight Saving,No,SizingPeriod:DesignDay
Environment:Design Day Data,32.80,7.70,DefaultMultipliers,Wetbulb,25.30,{C},101229,70,3.8,0.00,No,No
Environment:Design Day Misc,233,1106.3,0.2000,0.1216,1.0,-3.33,12.4,ASHRAETau
Environment,TAMPA-MACDILL AFB ANN CLG 2% CONDNS DB=>MWB,SizingPeriod:DesignDay,08/21,08/21,SummerDesignDay,1,N/A,N/A,N/A,N/A,N/A,N/A,Clark and Allen
Environment:Daylight Saving,No,SizingPeriod:DesignDay
Environment:Design Day Data,32.40,7.70,DefaultMultipliers,Wetbulb,25.30,{C},101229,70,3.8,0.00,No,No
Environment:Design Day Misc,233,1106.3,0.2000,0.1216,1.0,-3.33,12.4,ASHRAETau
Environment,TAMPA-MACDILL AFB ANN CLG .4% CONDNS WB=>MDB,SizingPeriod:DesignDay,08/21,08/21,SummerDesignDay,1,N/A,N/A,N/A,N/A,N/A,N/A,Clark and Allen
Environment:Daylight Saving,No,SizingPeriod:DesignDay
Environment:Design Day Data,30.40,7.70,DefaultMultipliers,Wetbulb,27.50,{C},101229,70,3.8,0.00,No,No
Environment:Design Day Misc,233,1106.3,0.2000,0.1216,1.0,-3.33,12.4,ASHRAETau
Environment,TAMPA-MACDILL AFB ANN CLG 1% CONDNS WB=>MDB,SizingPeriod:DesignDay,08/21,08/21,SummerDesignDay,1,N/A,N/A,N/A,N/A,N/A,N/A,Clark and Allen
Environment:Daylight Saving,No,SizingPeriod:DesignDay
Environment:Design Day Data,30.30,7.70,DefaultMultipliers,Wetbulb,27.10,{C},101229,70,3.8,0.00,No,No
Environment:Design Day Misc,233,1106.3,0.2000,0.1216,1.0,-3.33,12.4,ASHRAETau
Environment,TAMPA-MACDILL AFB ANN CLG 2% CONDNS WB=>MDB,SizingPeriod:DesignDay,08/21,08/21,SummerDesignDay,1,N/A,N/A,N/A,N/A,N/A,N/A,Clark and Allen
Environment:Daylight Saving,No,SizingPeriod:DesignDay
Environment:Design Day Data,30.10,7.70,DefaultMultipliers,Wetbulb,26.70,{C},101229,70,3.8,0.00,No,No
Environment:Design Day Misc,233,1106.3,0.2000,0.1216,1.0,-3.33,12.4,ASHRAETau
Environment,TAMPA-MACDILL AFB ANN CLG .4% CONDNS DP=>MDB,SizingPeriod:DesignDay,08/21,08/21,SummerDesignDay,1,N/A,N/A,N/A,N/A,N/A,N/A,Clark and Allen
Environment:Daylight Saving,No,SizingPeriod:DesignDay
Environment:Design Day Data,29.00,7.70,DefaultMultipliers,Dewpoint,27.10,{C},101229,70,3.8,0.00,No,No
Environment:Design Day Misc,233,1106.3,0.2000,0.1216,1.0,-3.33,12.4,ASHRAETau
Environment,TAMPA-MACDILL AFB ANN CLG 1% CONDNS DP=>MDB,SizingPeriod:DesignDay,08/21,08/21,SummerDesignDay,1,N/A,N/A,N/A,N/A,N/A,N/A,Clark and Allen
Environment:Daylight Saving,No,SizingPeriod:DesignDay
Environment:Design Day Data,28.60,7.70,DefaultMultipliers,Dewpoint,26.20,{C},101229,70,3.8,0.00,No,No
Environment:Design Day Misc,233,1106.3,0.2000,0.1216,1.0,-3.33,12.4,ASHRAETau
Environment,TAMPA-MACDILL AFB ANN CLG 2% CONDNS DP=>MDB,SizingPeriod:DesignDay,08/21,08/21,SummerDesignDay,1,N/A,N/A,N/A,N/A,N/A,N/A,Clark and Allen
Environment:Daylight Saving,No,SizingPeriod:DesignDay
Environment:Design Day Data,28.50,7.70,DefaultMultipliers,Dewpoint,26.00,{C},101229,70,3.8,0.00,No,No
Environment:Design Day Misc,233,1106.3,0.2000,0.1216,1.0,-3.33,12.4,ASHRAETau
Environment,TAMPA-MACDILL AFB ANN CLG .4% CONDNS ENTH=>MDB,SizingPeriod:DesignDay,08/21,08/21,SummerDesignDay,1,N/A,N/A,N/A,N/A,N/A,N/A,Clark and Allen
Environment:Daylight Saving,No,SizingPeriod:DesignDay
Environment:Design Day Data,30.70,7.70,DefaultMultipliers,Enthalpy,87000.00,{J/kgDryAir},101229,70,3.8,0.00,No,No
Environment:Design Day Misc,233,1106.3,0.2000,0.1216,1.0,-3.33,12.4,ASHRAETau
Environment,TAMPA-MACDILL AFB ANN CLG 1% CONDNS ENTH=>MDB,SizingPeriod:DesignDay,08/21,08/21,SummerDesignDay,1,N/A,N/A,N/A,N/A,N/A,N/A,Clark and Allen
Environment:Daylight Saving,No,SizingPeriod:DesignDay
Environment:Design Day Data,30.30,7.70,DefaultMultipliers,Enthalpy,84800.00,{J/kgDryAir},101229,70,3.8,0.00,No,No
Environment:Design Day Misc,233,1106.3,0.2000,0.1216,1.0,-3.33,12.4,ASHRAETau
Environment,TAMPA-MACDILL AFB ANN CLG 2% CONDNS ENTH=>MDB,SizingPeriod:DesignDay,08/21,08/21,SummerDesignDay,1,N/A,N/A,N/A,N/A,N/A,N/A,Clark and Allen
Environment:Daylight Saving,No,SizingPeriod:DesignDay
Environment:Design Day Data,30.20,7.70,DefaultMultipliers,Enthalpy,82900.00,{J/kgDryAir},101229,70,3.8,0.00,No,No
Environment:Design Day Misc,233,1106.3,0.2000,0.1216,1.0,-3.33,12.4,ASHRAETau
Environment,ANNUAL,WeatherFileRunPeriod,01/01/2017,12/31/2017,Sunday,365,Use RunPeriod Specified Day,Yes,Yes,No,Yes,Yes,Clark and Allen
Environment,TAMPA-MACDILL AFB ANN HTG 99.6% CONDNS DB HVAC Sizing Pass 1,SizingPeriod:DesignDay,01/21,01/21,WinterDesignDay,1,N/A,N/A,N/A,N/A,N/A,N/A,Clark and Allen
Environment:Daylight Saving,No,SizingPeriod:DesignDay
Environment:Design Day Data,3.90,0.00,DefaultMultipliers,Wetbulb,3.90,{C},101229,10,2.8,0.00,No,No
Environment:Design Day Misc, 21,1229.0,0.1415,5.7310E-002,1.0,-11.15,-20.1,ASHRAEClearSky
Environment,TAMPA-MACDILL AFB ANN HTG 99% CONDNS DB HVAC Sizing Pass 1,SizingPeriod:DesignDay,01/21,01/21,WinterDesignDay,1,N/A,N/A,N/A,N/A,N/A,N/A,Clark and Allen
Environment:Daylight Saving,No,SizingPeriod:DesignDay
Environment:Design Day Data,6.10,0.00,DefaultMultipliers,Wetbulb,6.10,{C},101229,10,2.8,0.00,No,No
Environment:Design Day Misc, 21,1229.0,0.1415,5.7310E-002,1.0,-11.15,-20.1,ASHRAEClearSky
Environment,TAMPA-MACDILL AFB ANN HUM_N 99.6% CONDNS DP=>MCDB HVAC Sizing Pass 1,SizingPeriod:DesignDay,01/21,01/21,WinterDesignDay,1,N/A,N/A,N/A,N/A,N/A,N/A,Clark and Allen
Environment:Daylight Saving,No,SizingPeriod:DesignDay
Environment:Design Day Data,9.30,0.00,DefaultMultipliers,Dewpoint,-3.00,{C},101229,10,2.8,0.00,No,No
Environment:Design Day Misc, 21,1229.0,0.1415,5.7310E-002,1.0,-11.15,-20.1,ASHRAEClearSky
Environment,TAMPA-MACDILL AFB ANN HUM_N 99% CONDNS DP=>MCDB HVAC Sizing Pass 1,SizingPeriod:DesignDay,01/21,01/21,WinterDesignDay,1,N/A,N/A,N/A,N/A,N/A,N/A,Clark and Allen
Environment:Daylight Saving,No,SizingPeriod:DesignDay
Environment:Design Day Data,10.30,0.00,DefaultMultipliers,Dewpoint,-1.30,{C},101229,10,2.8,0.00,No,No
Environment:Design Day Misc, 21,1229.0,0.1415,5.7310E-002,1.0,-11.15,-20.1,ASHRAEClearSky
Environment,TAMPA-MACDILL AFB ANN HTG WIND 99.6% CONDNS WS=>MCDB HVAC Sizing Pass 1,SizingPeriod:DesignDay,01/21,01/21,WinterDesignDay,1,N/A,N/A,N/A,N/A,N/A,N/A,Clark and Allen
Environment:Daylight Saving,No,SizingPeriod:DesignDay
Environment:Design Day Data,15.60,0.00,DefaultMultipliers,Wetbulb,15.60,{C},101229,10,9.3,0.00,No,No
Environment:Design Day Misc, 21,1229.0,0.1415,5.7310E-002,1.0,-11.15,-20.1,ASHRAEClearSky
Environment,TAMPA-MACDILL AFB ANN HTG WIND 99% CONDNS WS=>MCDB HVAC Sizing Pass 1,SizingPeriod:DesignDay,01/21,01/21,WinterDesignDay,1,N/A,N/A,N/A,N/A,N/A,N/A,Clark and Allen
Environment:Daylight Saving,No,SizingPeriod:DesignDay
Environment:Design Day Data,16.20,0.00,DefaultMultipliers,Wetbulb,16.20,{C},101229,10,8.4,0.00,No,No
Environment:Design Day Misc, 21,1229.0,0.1415,5.7310E-002,1.0,-11.15,-20.1,ASHRAEClearSky
Environment,TAMPA-MACDILL AFB ANN CLG .4% CONDNS DB=>MWB HVAC Sizing Pass 1,SizingPeriod:DesignDay,08/21,08/21,SummerDesignDay,1,N/A,N/A,N/A,N/A,N/A,N/A,Clark and Allen
Environment:Daylight Saving,No,SizingPeriod:DesignDay
Environment:Design Day Data,33.70,7.70,DefaultMultipliers,Wetbulb,25.30,{C},101229,70,3.8,0.00,No,No
Environment:Design Day Misc,233,1106.3,0.2000,0.1216,1.0,-3.33,12.4,ASHRAETau
Environment,TAMPA-MACDILL AFB ANN CLG 1% CONDNS DB=>MWB HVAC Sizing Pass 1,SizingPeriod:DesignDay,08/21,08/21,SummerDesignDay,1,N/A,N/A,N/A,N/A,N/A,N/A,Clark and Allen
Environment:Daylight Saving,No,SizingPeriod:DesignDay
Environment:Design Day Data,32.80,7.70,DefaultMultipliers,Wetbulb,25.30,{C},101229,70,3.8,0.00,No,No
Environment:Design Day Misc,233,1106.3,0.2000,0.1216,1.0,-3.33,12.4,ASHRAETau
Environment,TAMPA-MACDILL AFB ANN CLG 2% CONDNS DB=>MWB HVAC Sizing Pass 1,SizingPeriod:DesignDay,08/21,08/21,SummerDesignDay,1,N/A,N/A,N/A,N/A,N/A,N/A,Clark and Allen
Environment:Daylight Saving,No,SizingPeriod:DesignDay
Environment:Design Day Data,32.40,7.70,DefaultMultipliers,Wetbulb,25.30,{C},101229,70,3.8,0.00,No,No
Environment:Design Day Misc,233,1106.3,0.2000,0.1216,1.0,-3.33,12.4,ASHRAETau
Environment,TAMPA-MACDILL AFB ANN CLG .4% CONDNS WB=>MDB HVAC Sizing Pass 1,SizingPeriod:DesignDay,08/21,08/21,SummerDesignDay,1,N/A,N/A,N/A,N/A,N/A,N/A,Clark and Allen
Environment:Daylight Saving,No,SizingPeriod:DesignDay
Environment:Design Day Data,30.40,7.70,DefaultMultipliers,Wetbulb,27.50,{C},101229,70,3.8,0.00,No,No
Environment:Design Day Misc,233,1106.3,0.2000,0.1216,1.0,-3.33,12.4,ASHRAETau
Environment,TAMPA-MACDILL AFB ANN CLG 1% CONDNS WB=>MDB HVAC Sizing Pass 1,SizingPeriod:DesignDay,08/21,08/21,SummerDesignDay,1,N/A,N/A,N/A,N/A,N/A,N/A,Clark and Allen
Environment:Daylight Saving,No,SizingPeriod:DesignDay
Environment:Design Day Data,30.30,7.70,DefaultMultipliers,Wetbulb,27.10,{C},101229,70,3.8,0.00,No,No
Environment:Design Day Misc,233,1106.3,0.2000,0.1216,1.0,-3.33,12.4,ASHRAETau
Environment,TAMPA-MACDILL AFB ANN CLG 2% CONDNS WB=>MDB HVAC Sizing Pass 1,SizingPeriod:DesignDay,08/21,08/21,SummerDesignDay,1,N/A,N/A,N/A,N/A,N/A,N/A,Clark and Allen
Environment:Daylight Saving,No,SizingPeriod:DesignDay
Environment:Design Day Data,30.10,7.70,DefaultMultipliers,Wetbulb,26.70,{C},101229,70,3.8,0.00,No,No
Environment:Design Day Misc,233,1106.3,0.2000,0.1216,1.0,-3.33,12.4,ASHRAETau
Environment,TAMPA-MACDILL AFB ANN CLG .4% CONDNS DP=>MDB HVAC Sizing Pass 1,SizingPeriod:DesignDay,08/21,08/21,SummerDesignDay,1,N/A,N/A,N/A,N/A,N/A,N/A,Clark and Allen
Environment:Daylight Saving,No,SizingPeriod:DesignDay
Environment:Design Day Data,29.00,7.70,DefaultMultipliers,Dewpoint,27.10,{C},101229,70,3.8,0.00,No,No
Environment:Design Day Misc,233,1106.3,0.2000,0.1216,1.0,-3.33,12.4,ASHRAETau
Environment,TAMPA-MACDILL AFB ANN CLG 1% CONDNS DP=>MDB HVAC Sizing Pass 1,SizingPeriod:DesignDay,08/21,08/21,SummerDesignDay,1,N/A,N/A,N/A,N/A,N/A,N/A,Clark and Allen
Environment:Daylight Saving,No,SizingPeriod:DesignDay
Environment:Design Day Data,28.60,7.70,DefaultMultipliers,Dewpoint,26.20,{C},101229,70,3.8,0.00,No,No
Environment:Design Day Misc,233,1106.3,0.2000,0.1216,1.0,-3.33,12.4,ASHRAETau
Environment,TAMPA-MACDILL AFB ANN CLG 2% CONDNS DP=>MDB HVAC Sizing Pass 1,SizingPeriod:DesignDay,08/21,08/21,SummerDesignDay,1,N/A,N/A,N/A,N/A,N/A,N/A,Clark and Allen
Environment:Daylight Saving,No,SizingPeriod:DesignDay
Environment:Design Day Data,28.50,7.70,DefaultMultipliers,Dewpoint,26.00,{C},101229,70,3.8,0.00,No,No
Environment:Design Day Misc,233,1106.3,0.2000,0.1216,1.0,-3.33,12.4,ASHRAETau
Environment,TAMPA-MACDILL AFB ANN CLG .4% CONDNS ENTH=>MDB HVAC Sizing Pass 1,SizingPeriod:DesignDay,08/21,08/21,SummerDesignDay,1,N/A,N/A,N/A,N/A,N/A,N/A,Clark and Allen
Environment:Daylight Saving,No,SizingPeriod:DesignDay
Environment:Design Day Data,30.70,7.70,DefaultMultipliers,Enthalpy,87000.00,{J/kgDryAir},101229,70,3.8,0.00,No,No
Environment:Design Day Misc,233,1106.3,0.2000,0.1216,1.0,-3.33,12.4,ASHRAETau
Environment,TAMPA-MACDILL AFB ANN CLG 1% CONDNS ENTH=>MDB HVAC Sizing Pass 1,SizingPeriod:DesignDay,08/21,08/21,SummerDesignDay,1,N/A,N/A,N/A,N/A,N/A,N/A,Clark and Allen
Environment:Daylight Saving,No,SizingPeriod:DesignDay
Environment:Design Day Data,30.30,7.70,DefaultMultipliers,Enthalpy,84800.00,{J/kgDryAir},101229,70,3.8,0.00,No,No
Environment:Design Day Misc,233,1106.3,0.2000,0.1216,1.0,-3.33,12.4,ASHRAETau
Environment,TAMPA-MACDILL AFB ANN CLG 2% CONDNS ENTH=>MDB HVAC Sizing Pass 1,SizingPeriod:DesignDay,08/21,08/21,SummerDesignDay,1,N/A,N/A,N/A,N/A,N/A,N/A,Clark and Allen
Environment:Daylight Saving,No,SizingPeriod:DesignDay
Environment:Design Day Data,30.20,7.70,DefaultMultipliers,Enthalpy,82900.00,{J/kgDryAir},101229,70,3.8,0.00,No,No
Environment:Design Day Misc,233,1106.3,0.2000,0.1216,1.0,-3.33,12.4,ASHRAETau
Environment,TAMPA-MACDILL AFB ANN HTG 99.6% CONDNS DB,SizingPeriod:DesignDay,01/21,01/21,WinterDesignDay,1,N/A,N/A,N/A,N/A,N/A,N/A,Clark and Allen
Environment:Daylight Saving,No,SizingPeriod:DesignDay
Environment:Design Day Data,3.90,0.00,DefaultMultipliers,Wetbulb,3.90,{C},101229,10,2.8,0.00,No,No
Environment:Design Day Misc, 21,1229.0,0.1415,5.7310E-002,1.0,-11.15,-20.1,ASHRAEClearSky
Environment:WarmupDays,  6
 Warmup Convergence Information,ZONE 1,SizingPeriod: TAMPA-MACDILL AFB ANN HTG 99.6% CONDNS DB,3.8343173652E-002,6.4415248080E-002,Pass,Pass,0.0000000000,0.0000000000,Pass,Pass
Environment,TAMPA-MACDILL AFB ANN HTG 99% CONDNS DB,SizingPeriod:DesignDay,01/21,01/21,WinterDesignDay,1,N/A,N/A,N/A,N/A,N/A,N/A,Clark and Allen
Environment:Daylight Saving,No,SizingPeriod:DesignDay
Environment:Design Day Data,6.10,0.00,DefaultMultipliers,Wetbulb,6.10,{C},101229,10,2.8,0.00,No,No
Environment:Design Day Misc, 21,1229.0,0.1415,5.7310E-002,1.0,-11.15,-20.1,ASHRAEClearSky
Environment:WarmupDays,  6
 Warmup Convergence Information,ZONE 1,SizingPeriod: TAMPA-MACDILL AFB ANN HTG 99% CONDNS DB,3.4262212263E-002,5.6119097882E-002,Pass,Pass,0.0000000000,0.0000000000,Pass,Pass
Environment,TAMPA-MACDILL AFB ANN HUM_N 99.6% CONDNS DP=>MCDB,SizingPeriod:DesignDay,01/21,01/21,WinterDesignDay,1,N/A,N/A,N/A,N/A,N/A,N/A,Clark and Allen
Environment:Daylight Saving,No,SizingPeriod:DesignDay
Environment:Design Day Data,9.30,0.00,DefaultMultipliers,Dewpoint,-3.00,{C},101229,10,2.8,0.00,No,No
Environment:Design Day Misc, 21,1229.0,0.1415,5.7310E-002,1.0,-11.15,-20.1,ASHRAEClearSky
Environment:WarmupDays,  6
 Warmup Convergence Information,ZONE 1,SizingPeriod: TAMPA-MACDILL AFB ANN HUM_N 99.6% CONDNS DP=>MCDB,2.8809047811E-002,4.4051812013E-002,Pass,Pass,0.0000000000,0.0000000000,Pass,Pass
Environment,TAMPA-MACDILL AFB ANN HUM_N 99% CONDNS DP=>MCDB,SizingPeriod:DesignDay,01/21,01/21,WinterDesignDay,1,N/A,N/A,N/A,N/A,N/A,N/A,Clark and Allen
Environment:Daylight Saving,No,SizingPeriod:DesignDay
Environment:Design Day Data,10.30,0.00,DefaultMultipliers,Dewpoint,-1.30,{C},101229,10,2.8,0.00,No,No
Environment:Design Day Misc, 21,1229.0,0.1415,5.7310E-002,1.0,-11.15,-20.1,ASHRAEClearSky
Environment:WarmupDays,  6
 Warmup Convergence Information,ZONE 1,SizingPeriod: TAMPA-MACDILL AFB ANN HUM_N 99% CONDNS DP=>MCDB,2.6990795846E-002,4.0671313553E-002,Pass,Pass,0.0000000000,0.0000000000,Pass,Pass
Environment,TAMPA-MACDILL AFB ANN HTG WIND 99.6% CONDNS WS=>MCDB,SizingPeriod:DesignDay,01/21,01/21,WinterDesignDay,1,N/A,N/A,N/A,N/A,N/A,N/A,Clark and Allen
Environment:Daylight Saving,No,SizingPeriod:DesignDay
Environment:Design Day Data,15.60,0.00,DefaultMultipliers,Wetbulb,15.60,{C},101229,10,9.3,0.00,No,No
Environment:Design Day Misc, 21,1229.0,0.1415,5.7310E-002,1.0,-11.15,-20.1,ASHRAEClearSky
Environment:WarmupDays,  6
 Warmup Convergence Information,ZONE 1,SizingPeriod: TAMPA-MACDILL AFB ANN HTG WIND 99.6% CONDNS WS=>MCDB,1.6080139819E-002,2.2094740318E-002,Pass,Pass,0.0000000000,0.0000000000,Pass,Pass
Environment,TAMPA-MACDILL AFB ANN HTG WIND 99% CONDNS WS=>MCDB,SizingPeriod:DesignDay,01/21,01/21,WinterDesignDay,1,N/A,N/A,N/A,N/A,N/A,N/A,Clark and Allen
Environment:Daylight Saving,No,SizingPeriod:DesignDay
Environment:Design Day Data,16.20,0.00,DefaultMultipliers,Wetbulb,16.20,{C},101229,10,8.4,0.00,No,No
Environment:Design Day Misc, 21,1229.0,0.1415,5.7310E-002,1.0,-11.15,-20.1,ASHRAEClearSky
Environment:WarmupDays,  6
 Warmup Convergence Information,ZONE 1,SizingPeriod: TAMPA-MACDILL AFB ANN HTG WIND 99% CONDNS WS=>MCDB,1.5107651355E-002,2.0449632773E-002,Pass,Pass,0.0000000000,0.0000000000,Pass,Pass
Environment,TAMPA-MACDILL AFB ANN CLG .4% CONDNS DB=>MWB,SizingPeriod:DesignDay,08/21,08/21,SummerDesignDay,1,N/A,N/A,N/A,N/A,N/A,N/A,Clark and Allen
Environment:Daylight Saving,No,SizingPeriod:DesignDay
Environment:Design Day Data,33.70,7.70,DefaultMultipliers,Wetbulb,25.30,{C},101229,70,3.8,0.00,No,No
Environment:Design Day Misc,233,1106.3,0.2000,0.1216,1.0,-3.33,12.4,ASHRAETau
Environment:WarmupDays,  6
 Warmup Convergence Information,ZONE 1,SizingPeriod: TAMPA-MACDILL AFB ANN CLG .4% CONDNS DB=>MWB,0.1143309654,7.1390102617E-002,Pass,Pass,0.0000000000,0.0000000000,Pass,Pass
Environment,TAMPA-MACDILL AFB ANN CLG 1% CONDNS DB=>MWB,SizingPeriod:DesignDay,08/21,08/21,SummerDesignDay,1,N/A,N/A,N/A,N/A,N/A,N/A,Clark and Allen
Environment:Daylight Saving,No,SizingPeriod:DesignDay
Environment:Design Day Data,32.80,7.70,DefaultMultipliers,Wetbulb,25.30,{C},101229,70,3.8,0.00,No,No
Environment:Design Day Misc,233,1106.3,0.2000,0.1216,1.0,-3.33,12.4,ASHRAETau
Environment:WarmupDays,  6
 Warmup Convergence Information,ZONE 1,SizingPeriod: TAMPA-MACDILL AFB ANN CLG 1% CONDNS DB=>MWB,0.1144893263,7.0887850663E-002,Pass,Pass,0.0000000000,0.0000000000,Pass,Pass
Environment,TAMPA-MACDILL AFB ANN CLG 2% CONDNS DB=>MWB,SizingPeriod:DesignDay,08/21,08/21,SummerDesignDay,1,N/A,N/A,N/A,N/A,N/A,N/A,Clark and Allen
Environment:Daylight Saving,No,SizingPeriod:DesignDay
Environment:Design Day Data,32.40,7.70,DefaultMultipliers,Wetbulb,25.30,{C},101229,70,3.8,0.00,No,No
Environment:Design Day Misc,233,1106.3,0.2000,0.1216,1.0,-3.33,12.4,ASHRAETau
Environment:WarmupDays,  6
 Warmup Convergence Information,ZONE 1,SizingPeriod: TAMPA-MACDILL AFB ANN CLG 2% CONDNS DB=>MWB,0.1145329713,7.0690256130E-002,Pass,Pass,0.0000000000,0.0000000000,Pass,Pass
Environment,TAMPA-MACDILL AFB ANN CLG .4% CONDNS WB=>MDB,SizingPeriod:DesignDay,08/21,08/21,SummerDesignDay,1,N/A,N/A,N/A,N/A,N/A,N/A,Clark and Allen
Environment:Daylight Saving,No,SizingPeriod:DesignDay
Environment:Design Day Data,30.40,7.70,DefaultMultipliers,Wetbulb,27.50,{C},101229,70,3.8,0.00,No,No
Environment:Design Day Misc,233,1106.3,0.2000,0.1216,1.0,-3.33,12.4,ASHRAETau
Environment:WarmupDays,  6
 Warmup Convergence Information,ZONE 1,SizingPeriod: TAMPA-MACDILL AFB ANN CLG .4% CONDNS WB=>MDB,0.1155153812,6.9927846581E-002,Pass,Pass,0.0000000000,0.0000000000,Pass,Pass
Environment,TAMPA-MACDILL AFB ANN CLG 1% CONDNS WB=>MDB,SizingPeriod:DesignDay,08/21,08/21,SummerDesignDay,1,N/A,N/A,N/A,N/A,N/A,N/A,Clark and Allen
Environment:Daylight Saving,No,SizingPeriod:DesignDay
Environment:Design Day Data,30.30,7.70,DefaultMultipliers,Wetbulb,27.10,{C},101229,70,3.8,0.00,No,No
Environment:Design Day Misc,233,1106.3,0.2000,0.1216,1.0,-3.33,12.4,ASHRAETau
Environment:WarmupDays,  6
 Warmup Convergence Information,ZONE 1,SizingPeriod: TAMPA-MACDILL AFB ANN CLG 1% CONDNS WB=>MDB,0.1154189272,6.9891194690E-002,Pass,Pass,0.0000000000,0.0000000000,Pass,Pass
Environment,TAMPA-MACDILL AFB ANN CLG 2% CONDNS WB=>MDB,SizingPeriod:DesignDay,08/21,08/21,SummerDesignDay,1,N/A,N/A,N/A,N/A,N/A,N/A,Clark and Allen
Environment:Daylight Saving,No,SizingPeriod:DesignDay
Environment:Design Day Data,30.10,7.70,DefaultMultipliers,Wetbulb,26.70,{C},101229,70,3.8,0.00,No,No
Environment:Design Day Misc,233,1106.3,0.2000,0.1216,1.0,-3.33,12.4,ASHRAETau
Environment:WarmupDays,  6
 Warmup Convergence Information,ZONE 1,SizingPeriod: TAMPA-MACDILL AFB ANN CLG 2% CONDNS WB=>MDB,0.1153376878,6.9820856886E-002,Pass,Pass,0.0000000000,0.0000000000,Pass,Pass
Environment,TAMPA-MACDILL AFB ANN CLG .4% CONDNS DP=>MDB,SizingPeriod:DesignDay,08/21,08/21,SummerDesignDay,1,N/A,N/A,N/A,N/A,N/A,N/A,Clark and Allen
Environment:Daylight Saving,No,SizingPeriod:DesignDay
Environment:Design Day Data,29.00,7.70,DefaultMultipliers,Dewpoint,27.10,{C},101229,70,3.8,0.00,No,No
Environment:Design Day Misc,233,1106.3,0.2000,0.1216,1.0,-3.33,12.4,ASHRAETau
Environment:WarmupDays,  6
 Warmup Convergence Information,ZONE 1,SizingPeriod: TAMPA-MACDILL AFB ANN CLG .4% CONDNS DP=>MDB,0.1155691565,6.8951983813E-002,Pass,Pass,0.0000000000,0.0000000000,Pass,Pass
Environment,TAMPA-MACDILL AFB ANN CLG 1% CONDNS DP=>MDB,SizingPeriod:DesignDay,08/21,08/21,SummerDesignDay,1,N/A,N/A,N/A,N/A,N/A,N/A,Clark and Allen
Environment:Daylight Saving,No,SizingPeriod:DesignDay
Environment:Design Day Data,28.60,7.70,DefaultMultipliers,Dewpoint,26.20,{C},101229,70,3.8,0.00,No,No
Environment:Design Day Misc,233,1106.3,0.2000,0.1216,1.0,-3.33,12.4,ASHRAETau
Environment:WarmupDays,  6
 Warmup Convergence Information,ZONE 1,SizingPeriod: TAMPA-MACDILL AFB ANN CLG 1% CONDNS DP=>MDB,0.1153866470,6.8716992539E-002,Pass,Pass,0.0000000000,0.0000000000,Pass,Pass
Environment,TAMPA-MACDILL AFB ANN CLG 2% CONDNS DP=>MDB,SizingPeriod:DesignDay,08/21,08/21,SummerDesignDay,1,N/A,N/A,N/A,N/A,N/A,N/A,Clark and Allen
Environment:Daylight Saving,No,SizingPeriod:DesignDay
Environment:Design Day Data,28.50,7.70,DefaultMultipliers,Dewpoint,26.00,{C},101229,70,3.8,0.00,No,No
Environment:Design Day Misc,233,1106.3,0.2000,0.1216,1.0,-3.33,12.4,ASHRAETau
Environment:WarmupDays,  6
 Warmup Convergence Information,ZONE 1,SizingPeriod: TAMPA-MACDILL AFB ANN CLG 2% CONDNS DP=>MDB,0.1153456349,6.8667320913E-002,Pass,Pass,0.0000000000,0.0000000000,Pass,Pass
Environment,TAMPA-MACDILL AFB ANN CLG .4% CONDNS ENTH=>MDB,SizingPeriod:DesignDay,08/21,08/21,SummerDesignDay,1,N/A,N/A,N/A,N/A,N/A,N/A,Clark and Allen
Environment:Daylight Saving,No,SizingPeriod:DesignDay
Environment:Design Day Data,30.70,7.70,DefaultMultipliers,Enthalpy,87000.00,{J/kgDryAir},101229,70,3.8,0.00,No,No
Environment:Design Day Misc,233,1106.3,0.2000,0.1216,1.0,-3.33,12.4,ASHRAETau
Environment:WarmupDays,  6
 Warmup Convergence Information,ZONE 1,SizingPeriod: TAMPA-MACDILL AFB ANN CLG .4% CONDNS ENTH=>MDB,0.1154186964,7.0077330176E-002,Pass,Pass,0.0000000000,0.0000000000,Pass,Pass
Environment,TAMPA-MACDILL AFB ANN CLG 1% CONDNS ENTH=>MDB,SizingPeriod:DesignDay,08/21,08/21,SummerDesignDay,1,N/A,N/A,N/A,N/A,N/A,N/A,Clark and Allen
Environment:Daylight Saving,No,SizingPeriod:DesignDay
Environment:Design Day Data,30.30,7.70,DefaultMultipliers,Enthalpy,84800.00,{J/kgDryAir},101229,70,3.8,0.00,No,No
Environment:Design Day Misc,233,1106.3,0.2000,0.1216,1.0,-3.33,12.4,ASHRAETau
Environment:WarmupDays,  6
 Warmup Convergence Information,ZONE 1,SizingPeriod: TAMPA-MACDILL AFB ANN CLG 1% CONDNS ENTH=>MDB,0.1153864530,6.9894668229E-002,Pass,Pass,0.0000000000,0.0000000000,Pass,Pass
Environment,TAMPA-MACDILL AFB ANN CLG 2% CONDNS ENTH=>MDB,SizingPeriod:DesignDay,08/21,08/21,SummerDesignDay,1,N/A,N/A,N/A,N/A,N/A,N/A,Clark and Allen
Environment:Daylight Saving,No,SizingPeriod:DesignDay
Environment:Design Day Data,30.20,7.70,DefaultMultipliers,Enthalpy,82900.00,{J/kgDryAir},101229,70,3.8,0.00,No,No
Environment:Design Day Misc,233,1106.3,0.2000,0.1216,1.0,-3.33,12.4,ASHRAETau
Environment:WarmupDays,  6
 Warmup Convergence Information,ZONE 1,SizingPeriod: TAMPA-MACDILL AFB ANN CLG 2% CONDNS ENTH=>MDB,0.1152917871,6.9866197304E-002,Pass,Pass,0.0000000000,0.0000000000,Pass,Pass
Environment,ANNUAL,WeatherFileRunPeriod,01/01/2017,12/31/2017,Sunday,365,Use RunPeriod Specified Day,Yes,Yes,No,Yes,Yes,Clark and Allen
Environment:Daylight Saving,No,
Environment:WarmupDays,  6
 Warmup Convergence Information,ZONE 1,RunPeriod: ANNUAL,0.1334514651,8.6290923012E-002,Pass,Pass,0.0000000000,0.0000000000,Pass,Pass
Environment,TAMPA-MACDILL AFB ANN HTG 99.6% CONDNS DB HVAC Sizing Pass 1,SizingPeriod:DesignDay,01/21,01/21,WinterDesignDay,1,N/A,N/A,N/A,N/A,N/A,N/A,Clark and Allen
Environment:Daylight Saving,No,SizingPeriod:DesignDay
Environment,TAMPA-MACDILL AFB ANN HTG 99% CONDNS DB HVAC Sizing Pass 1,SizingPeriod:DesignDay,01/21,01/21,WinterDesignDay,1,N/A,N/A,N/A,N/A,N/A,N/A,Clark and Allen
Environment:Daylight Saving,No,SizingPeriod:DesignDay
Environment,TAMPA-MACDILL AFB ANN HUM_N 99.6% CONDNS DP=>MCDB HVAC Sizing Pass 1,SizingPeriod:DesignDay,01/21,01/21,WinterDesignDay,1,N/A,N/A,N/A,N/A,N/A,N/A,Clark and Allen
Environment:Daylight Saving,No,SizingPeriod:DesignDay
Environment,TAMPA-MACDILL AFB ANN HUM_N 99% CONDNS DP=>MCDB HVAC Sizing Pass 1,SizingPeriod:DesignDay,01/21,01/21,WinterDesignDay,1,N/A,N/A,N/A,N/A,N/A,N/A,Clark and Allen
Environment:Daylight Saving,No,SizingPeriod:DesignDay
Environment,TAMPA-MACDILL AFB ANN HTG WIND 99.6% CONDNS WS=>MCDB HVAC Sizing Pass 1,SizingPeriod:DesignDay,01/21,01/21,WinterDesignDay,1,N/A,N/A,N/A,N/A,N/A,N/A,Clark and Allen
Environment:Daylight Saving,No,SizingPeriod:DesignDay
Environment,TAMPA-MACDILL AFB ANN HTG WIND 99% CONDNS WS=>MCDB HVAC Sizing Pass 1,SizingPeriod:DesignDay,01/21,01/21,WinterDesignDay,1,N/A,N/A,N/A,N/A,N/A,N/A,Clark and Allen
Environment:Daylight Saving,No,SizingPeriod:DesignDay
Environment,TAMPA-MACDILL AFB ANN CLG .4% CONDNS DB=>MWB HVAC Sizing Pass 1,SizingPeriod:DesignDay,08/21,08/21,SummerDesignDay,1,N/A,N/A,N/A,N/A,N/A,N/A,Clark and Allen
Environment:Daylight Saving,No,SizingPeriod:DesignDay
Environment,TAMPA-MACDILL AFB ANN CLG 1% CONDNS DB=>MWB HVAC Sizing Pass 1,SizingPeriod:DesignDay,08/21,08/21,SummerDesignDay,1,N/A,N/A,N/A,N/A,N/A,N/A,Clark and Allen
Environment:Daylight Saving,No,SizingPeriod:DesignDay
Environment,TAMPA-MACDILL AFB ANN CLG 2% CONDNS DB=>MWB HVAC Sizing Pass 1,SizingPeriod:DesignDay,08/21,08/21,SummerDesignDay,1,N/A,N/A,N/A,N/A,N/A,N/A,Clark and Allen
Environment:Daylight Saving,No,SizingPeriod:DesignDay
Environment,TAMPA-MACDILL AFB ANN CLG .4% CONDNS WB=>MDB HVAC Sizing Pass 1,SizingPeriod:DesignDay,08/21,08/21,SummerDesignDay,1,N/A,N/A,N/A,N/A,N/A,N/A,Clark and Allen
Environment:Daylight Saving,No,SizingPeriod:DesignDay
Environment,TAMPA-MACDILL AFB ANN CLG 1% CONDNS WB=>MDB HVAC Sizing Pass 1,SizingPeriod:DesignDay,08/21,08/21,SummerDesignDay,1,N/A,N/A,N/A,N/A,N/A,N/A,Clark and Allen
Environment:Daylight Saving,No,SizingPeriod:DesignDay
Environment,TAMPA-MACDILL AFB ANN CLG 2% CONDNS WB=>MDB HVAC Sizing Pass 1,SizingPeriod:DesignDay,08/21,08/21,SummerDesignDay,1,N/A,N/A,N/A,N/A,N/A,N/A,Clark and Allen
Environment:Daylight Saving,No,SizingPeriod:DesignDay
Environment,TAMPA-MACDILL AFB ANN CLG .4% CONDNS DP=>MDB HVAC Sizing Pass 1,SizingPeriod:DesignDay,08/21,08/21,SummerDesignDay,1,N/A,N/A,N/A,N/A,N/A,N/A,Clark and Allen
Environment:Daylight Saving,No,SizingPeriod:DesignDay
Environment,TAMPA-MACDILL AFB ANN CLG 1% CONDNS DP=>MDB HVAC Sizing Pass 1,SizingPeriod:DesignDay,08/21,08/21,SummerDesignDay,1,N/A,N/A,N/A,N/A,N/A,N/A,Clark and Allen
Environment:Daylight Saving,No,SizingPeriod:DesignDay
Environment,TAMPA-MACDILL AFB ANN CLG 2% CONDNS DP=>MDB HVAC Sizing Pass 1,SizingPeriod:DesignDay,08/21,08/21,SummerDesignDay,1,N/A,N/A,N/A,N/A,N/A,N/A,Clark and Allen
Environment:Daylight Saving,No,SizingPeriod:DesignDay
Environment,TAMPA-MACDILL AFB ANN CLG .4% CONDNS ENTH=>MDB HVAC Sizing Pass 1,SizingPeriod:DesignDay,08/21,08/21,SummerDesignDay,1,N/A,N/A,N/A,N/A,N/A,N/A,Clark and Allen
Environment:Daylight Saving,No,SizingPeriod:DesignDay
Environment,TAMPA-MACDILL AFB ANN CLG 1% CONDNS ENTH=>MDB HVAC Sizing Pass 1,SizingPeriod:DesignDay,08/21,08/21,SummerDesignDay,1,N/A,N/A,N/A,N/A,N/A,N/A,Clark and Allen
Environment:Daylight Saving,No,SizingPeriod:DesignDay
Environment,TAMPA-MACDILL AFB ANN CLG 2% CONDNS ENTH=>MDB HVAC Sizing Pass 1,SizingPeriod:DesignDay,08/21,08/21,SummerDesignDay,1,N/A,N/A,N/A,N/A,N/A,N/A,Clark and Allen
Environment:Daylight Saving,No,SizingPeriod:DesignDay
! <Program Control Information:Threads/Parallel Sims>, Threading Supported,Maximum Number of Threads, Env Set Threads (OMP_NUM_THREADS), EP Env Set Threads (EP_OMP_NUM_THREADS), IDF Set Threads, Number of Threads Used (Interior Radiant Exchange), Number Nominal Surfaces, Number Parallel Sims
Program Control:Threads/Parallel Sims, No,1, N/A, N/A, N/A, N/A, N/A, N/A
End of Data
