Program Version,EnergyPlus, Version 22.1.0-ed759b17ee, YMD=2023.09.21 21:06,
   ** Severe  ** <root>[BuildingSurface:Detailed][Attic][number_of_vertices] - "0" - Expected number greater than or equal to 3.000000
   ** Severe  ** <root>[BuildingSurface:Detailed][Attic][number_of_vertices] - Failed to validate against child schema #0.
   ** Severe  ** <root>[BuildingSurface:Detailed][Attic][number_of_vertices] - "0" - Failed to match against any enum values.
   ** Severe  ** <root>[BuildingSurface:Detailed][Attic][number_of_vertices] - Failed to validate against child schema #1.
   ** Severe  ** <root>[BuildingSurface:Detailed][Attic][number_of_vertices] - Failed to validate against any schemas allowed by anyOf constraint.
   ** Severe  ** <root>[BuildingSurface:Detailed][Attic][sun_exposure] - "NoWind" - Failed to match against any enum values.
   ** Severe  ** <root>[BuildingSurface:Detailed][Attic][vertices][3] - Missing required property 'vertex_z_coordinate'.
   ** Warning ** Version: in IDF="9.5" not the same as expected="22.1"
   **  Fatal  ** Errors occurred on processing input file. Preceding condition(s) cause termination.
   ...Summary of Errors that led to program termination:
   ..... Reference severe error count=7
   ..... Last severe error=<root>[BuildingSurface:Detailed][Attic][vertices][3] - Missing required property 'vertex_z_coordinate'.
   ************* Warning:  Node connection errors not checked - most system input has not been read (see previous warning).
   ************* Fatal error -- final processing.  Program exited before simulations began.  See previous error messages.
   ************* EnergyPlus Warmup Error Summary. During Warmup: 0 Warning; 0 Severe Errors.
   ************* EnergyPlus Sizing Error Summary. During Sizing: 0 Warning; 0 Severe Errors.
   ************* EnergyPlus Terminated--Fatal Error Detected. 1 Warning; 7 Severe Errors; Elapsed Time=00hr 00min  0.08sec
