Program Version,EnergyPlus, Version 9.5.0-de239b2e5f, YMD=2023.09.11 22:42
! <Version>, Version ID
 Version, 9.5
! <Timesteps per Hour>, #TimeSteps, Minutes per TimeStep {minutes}
 Timesteps per Hour,  4, 15
! <System Convergence Limits>, Minimum System TimeStep {minutes}, Max HVAC Iterations, Minimum Plant Iterations, Maximum Plant Iterations
 System Convergence Limits, 1, 20, 2, 8
! <Simulation Control>, Do Zone Sizing, Do System Sizing, Do Plant Sizing, Do Design Days, Do Weather Simulation, Do HVAC Sizing Simulation
 Simulation Control, Yes, Yes, No, Yes, Yes, Yes
! <Performance Precision Tradeoffs>, Use Coil Direct Simulation, Zone Radiant Exchange Algorithm, Override Mode, Number of Timestep In Hour, Force Euler Method, Minimum Number of Warmup Days, Force Suppress All Begin Environment Resets, Minimum System Timestep, MaxZoneTempDiff, MaxAllowedDelTemp
 Performance Precision Tradeoffs, No, ScriptF, Normal, 4, No, 1, No, 1.0, 0.300, 2.0000E-003
! <Output Reporting Tolerances>, Tolerance for Time Heating Setpoint Not Met, Tolerance for Zone Cooling Setpoint Not Met Time
 Output Reporting Tolerances, 0.200, 0.200, 
! <Site:GroundTemperature:BuildingSurface>,Jan{C},Feb{C},Mar{C},Apr{C},May{C},Jun{C},Jul{C},Aug{C},Sep{C},Oct{C},Nov{C},Dec{C}
 Site:GroundTemperature:BuildingSurface,  18.00,  18.00,  18.00,  18.00,  18.00,  18.00,  18.00,  18.00,  18.00,  18.00,  18.00,  18.00
! <Site:GroundTemperature:FCfactorMethod>,Jan{C},Feb{C},Mar{C},Apr{C},May{C},Jun{C},Jul{C},Aug{C},Sep{C},Oct{C},Nov{C},Dec{C}
 Site:GroundTemperature:FCfactorMethod,  -1.50,  -6.19,  -7.46,  -6.35,  -0.03,   7.05,  13.71,  18.53,  19.94,  17.67,  12.21,   5.33
! <Site:GroundTemperature:Shallow>,Jan{C},Feb{C},Mar{C},Apr{C},May{C},Jun{C},Jul{C},Aug{C},Sep{C},Oct{C},Nov{C},Dec{C}
 Site:GroundTemperature:Shallow,  13.00,  13.00,  13.00,  13.00,  13.00,  13.00,  13.00,  13.00,  13.00,  13.00,  13.00,  13.00
! <Site:GroundTemperature:Deep>,Jan{C},Feb{C},Mar{C},Apr{C},May{C},Jun{C},Jul{C},Aug{C},Sep{C},Oct{C},Nov{C},Dec{C}
 Site:GroundTemperature:Deep,  16.00,  16.00,  16.00,  16.00,  16.00,  16.00,  16.00,  16.00,  16.00,  16.00,  16.00,  16.00
! <Site:GroundReflectance>,Jan{dimensionless},Feb{dimensionless},Mar{dimensionless},Apr{dimensionless},May{dimensionless},Jun{dimensionless},Jul{dimensionless},Aug{dimensionless},Sep{dimensionless},Oct{dimensionless},Nov{dimensionless},Dec{dimensionless}
 Site:GroundReflectance,  0.20,  0.20,  0.20,  0.20,  0.20,  0.20,  0.20,  0.20,  0.20,  0.20,  0.20,  0.20
! <Site:GroundReflectance:SnowModifier>, Normal, Daylighting {dimensionless}
 Site:GroundReflectance:SnowModifier,   1.000,   1.000
! <Site:GroundReflectance:Snow>,Jan{dimensionless},Feb{dimensionless},Mar{dimensionless},Apr{dimensionless},May{dimensionless},Jun{dimensionless},Jul{dimensionless},Aug{dimensionless},Sep{dimensionless},Oct{dimensionless},Nov{dimensionless},Dec{dimensionless}
 Site:GroundReflectance:Snow,  0.20,  0.20,  0.20,  0.20,  0.20,  0.20,  0.20,  0.20,  0.20,  0.20,  0.20,  0.20
! <Site:GroundReflectance:Snow:Daylighting>,Jan{dimensionless},Feb{dimensionless},Mar{dimensionless},Apr{dimensionless},May{dimensionless},Jun{dimensionless},Jul{dimensionless},Aug{dimensionless},Sep{dimensionless},Oct{dimensionless},Nov{dimensionless},Dec{dimensionless}
 Site:GroundReflectance:Snow:Daylighting,  0.20,  0.20,  0.20,  0.20,  0.20,  0.20,  0.20,  0.20,  0.20,  0.20,  0.20,  0.20
! <Environment:Weather Station>,Wind Sensor Height Above Ground {m},Wind Speed Profile Exponent {},Wind Speed Profile Boundary Layer Thickness {m},Air Temperature Sensor Height Above Ground {m},Wind Speed Modifier Coefficient-Internal,Temperature Modifier Coefficient-Internal
Environment:Weather Station,10.000,0.140,270.000,1.500,1.586,9.750E-003
! <Site:Location>, Location Name, Latitude {N+/S- Deg}, Longitude {E+/W- Deg},  Time Zone Number {GMT+/-}, Elevation {m},  Standard Pressure at Elevation {Pa}, Standard RhoAir at Elevation
Site:Location,Montreal Int'l PQ CAN WYEC2-B-94792 WMO#=716270,45.47,-73.75,-5.00,36.00,100893,1.1992
! <Site Water Mains Temperature Information>,Calculation Method{},Water Mains Temperature Schedule Name{},Annual Average Outdoor Air Temperature{C},Maximum Difference In Monthly Average Outdoor Air Temperatures{deltaC},Fixed Default Water Mains Temperature{C}
Site Water Mains Temperature Information,FixedDefault,NA,NA,NA,10.0
! <Building Information>, Building Name,North Axis {deg},Terrain,  Loads Convergence Tolerance Value,Temperature Convergence Tolerance Value,  Solar Distribution,Maximum Number of Warmup Days,Minimum Number of Warmup Days
 Building Information,Name your batch of files_Montreal_Package_0_BASE House_Elec,0.000,City,4.00000E-002,0.40000,FullInteriorAndExterior,25,6
! <Inside Convection Algorithm>, Algorithm {Simple | TARP | CeilingDiffuser | AdaptiveConvectionAlgorithm}
Inside Convection Algorithm,TARP
! <Outside Convection Algorithm>, Algorithm {SimpleCombined | TARP | MoWitt | DOE-2 | AdaptiveConvectionAlgorithm}
Outside Convection Algorithm,DOE-2
! <Sky Radiance Distribution>, Value {Anisotropic}
Sky Radiance Distribution,Anisotropic
! <Zone Air Solution Algorithm>, Value {ThirdOrderBackwardDifference | AnalyticalSolution | EulerMethod}
 Zone Air Solution Algorithm, ThirdOrderBackwardDifference
! <Zone Air Carbon Dioxide Balance Simulation>, Simulation {Yes/No}, Carbon Dioxide Concentration
 Zone Air Carbon Dioxide Balance Simulation, Yes,YES
! <Zone Air Generic Contaminant Balance Simulation>, Simulation {Yes/No}, Generic Contaminant Concentration
 Zone Air Generic Contaminant Balance Simulation, No,N/A
! <Zone Air Mass Flow Balance Simulation>, Enforce Mass Balance, Adjust Zone Mixing and Return {AdjustMixingOnly | AdjustReturnOnly | AdjustMixingThenReturn | AdjustReturnThenMixing | None}, Adjust Zone Infiltration {AddInfiltration | AdjustInfiltration | None}, Infiltration Zones {MixingSourceZonesOnly | AllZones}
 Zone Air Mass Flow Balance Simulation, No,N/A,N/A,N/A
! <HVACSystemRootFindingAlgorithm>, Value {RegulaFalsi | Bisection | BisectionThenRegulaFalsi | RegulaFalsiThenBisection}
 HVACSystemRootFindingAlgorithm, RegulaFalsi
! <Environment:Site Atmospheric Variation>,Wind Speed Profile Exponent {},Wind Speed Profile Boundary Layer Thickness {m},Air Temperature Gradient Coefficient {K/m}
Environment:Site Atmospheric Variation,0.330,460.000,6.500000E-003
! <Surface Geometry>,Starting Corner,Vertex Input Direction,Coordinate System,Daylight Reference Point Coordinate System,Rectangular (Simple) Surface Coordinate System
 Surface Geometry,UpperLeftCorner,Counterclockwise,RelativeCoordinateSystem,RelativeCoordinateSystem,RelativeToZoneOrigin
! <Zone Volume Capacitance Multiplier>, Sensible Heat Capacity Multiplier, Moisture Capacity Multiplier, Carbon Dioxide Capacity Multiplier, Generic Contaminant Capacity Multiplier
Zone Volume Capacitance Multiplier,   1.000 ,   1.000,   1.000,   1.000
! <Kiva Foundation Name>, Horizontal Cells, Vertical Cells, Total Cells, Total Exposed Perimeter, Perimeter Fraction, Wall Height, Wall Construction, Floor Surface, Wall Surface(s)
SLAB DETAILS,39,28,1092,36.58,1.00,0.00,<Default Footing Wall Construction>,SLAB
! <Surface Heat Transfer Algorithm>, Value {CTF - ConductionTransferFunction | EMPD - MoisturePenetrationDepthConductionTransferFunction | CondFD - ConductionFiniteDifference | HAMT - CombinedHeatAndMoistureFiniteElement} - Description,Inside Surface Max Temperature Limit{C}, Surface Convection Coefficient Lower Limit {W/m2-K}, Surface Convection Coefficient Upper Limit {W/m2-K}
Surface Heat Transfer Algorithm, CTF - ConductionTransferFunction,200,0.10,1000.0
Surface Heat Transfer Algorithm, KivaFoundation - TwoDimensionalFiniteDifference,200,0.10,1000.0
! <Shading Summary>, Number of Fixed Detached Shades, Number of Building Detached Shades, Number of Attached Shades
 Shading Summary,0,4,0
! <Zone Summary>, Number of Zones, Number of Zone Surfaces, Number of SubSurfaces
 Zone Summary,1,22,9
! <Zone Information>,Zone Name,North Axis {deg},Origin X-Coordinate {m},Origin Y-Coordinate {m},Origin Z-Coordinate {m},Centroid X-Coordinate {m},Centroid Y-Coordinate {m},Centroid Z-Coordinate {m},Type,Zone Multiplier,Zone List Multiplier,Minimum X {m},Maximum X {m},Minimum Y {m},Maximum Y {m},Minimum Z {m},Maximum Z {m},Ceiling Height {m},Volume {m3},Zone Inside Convection Algorithm {Simple-Detailed-CeilingDiffuser-TrombeWall},Zone Outside Convection Algorithm {Simple-Detailed-Tarp-MoWitt-DOE-2-BLAST}, Floor Area {m2},Exterior Gross Wall Area {m2},Exterior Net Wall Area {m2},Exterior Window Area {m2}, Number of Surfaces, Number of SubSurfaces, Number of Shading SubSurfaces,  Part of Total Building Area
 Zone Information, ZONE 1,0.0,0.00,0.00,0.00,4.57,6.10,2.62,1,1,1,0.00,9.14,0.00,12.19,-0.30,5.49,4.11,482.07,TARP,DOE-2,197.70,247.12,211.73,33.45,11,9,0,Yes
! <Zone Internal Gains Nominal>,Zone Name, Floor Area {m2},# Occupants,Area per Occupant {m2/person},Occupant per Area {person/m2},Interior Lighting {W/m2},Electric Load {W/m2},Gas Load {W/m2},Other Load {W/m2},Hot Water Eq {W/m2},Steam Equipment {W/m2},Sum Loads per Area {W/m2},Outdoor Controlled Baseboard Heat
 Zone Internal Gains Nominal, ZONE 1,197.70,4.0,49.424,2.023E-002,9.955,50.851,0.000,0.000,0.000,0.000,60.807,No
! <People Internal Gains Nominal>,Name,Schedule Name,Zone Name,Zone Floor Area {m2},# Zone Occupants,Number of People {},People/Floor Area {person/m2},Floor Area per person {m2/person},Fraction Radiant,Fraction Convected,Sensible Fraction Calculation,Activity level,ASHRAE 55 Warnings,Carbon Dioxide Generation Rate,Nominal Minimum Number of People,Nominal Maximum Number of People,MRT Calculation Type,Work Efficiency, Clothing Insulation Calculation Method,Clothing Insulation Calculation Method Schedule,Clothing,Air Velocity,Fanger Calculation,Pierce Calculation,KSU Calculation,Cooling Effect Calculation,Ankle Draft Calculation
 People Internal Gains Nominal, ZONE OCCUPANTS,OCCUPANTSCHEDULE,ZONE 1,197.70,4.0,4.0,2.023E-002,49.424,0.300,0.700,AutoCalculate,OCCUPANT_ACTIVITY_SCHEDULE,No,3.8200E-008,4,4,Zone Averaged,OCCUPANT_EFF_SCHEDULE,Clothing Insulation Schedule,N/A,OCCUPANT_CLOTHING_SCHEDULE,AIRVELOCITYSCH,No,Yes,No,No,No
! <Lights Internal Gains Nominal>,Name,Schedule Name,Zone Name,Zone Floor Area {m2},# Zone Occupants,Lighting Level {W},Lights/Floor Area {W/m2},Lights per person {W/person},Fraction Return Air,Fraction Radiant,Fraction Short Wave,Fraction Convected,Fraction Replaceable,End-Use Category,Nominal Minimum Lighting Level {W},Nominal Maximum Lighting Level {W}
 Lights Internal Gains Nominal, PHIUSLIGHTS,PHIUS_LIGHTING,ZONE 1,197.70,4.0,1968.098,9.955,492.025,0.000,0.600,0.200,0.200,1.000,InteriorLights,0.000,0.000
! <ElectricEquipment Internal Gains Nominal>,Name,Schedule Name,Zone Name,Zone Floor Area {m2},# Zone Occupants,Equipment Level {W},Equipment/Floor Area {W/m2},Equipment per person {W/person},Fraction Latent,Fraction Radiant,Fraction Lost,Fraction Convected,End-Use SubCategory,Nominal Minimum Equipment Level {W},Nominal Maximum Equipment Level {W}
 ElectricEquipment Internal Gains Nominal, PHIUSMELS,PHIUS_MELS,ZONE 1,197.70,4.0,5603.244,28.342,1400.811,0.000,0.000,0.000,1.000,MELs,0.000,0.000
 ElectricEquipment Internal Gains Nominal, FRIDGE,ALWAYS_ON,ZONE 1,197.70,4.0,50.799,0.257,12.700,0.000,1.000,0.000,0.000,Fridge,50.799,50.799
 ElectricEquipment Internal Gains Nominal, RANGE,BARANGESCHEDULE,ZONE 1,197.70,4.0,1227.397,6.208,306.849,0.300,0.400,0.000,0.300,Range,0.000,0.000
 ElectricEquipment Internal Gains Nominal, CLOTHESDRYER,BACLOTHESDRYERSCHEDULE,ZONE 1,197.70,4.0,1713.277,8.666,428.319,5.000E-002,0.150,0.000,0.800,ClothesDryer,0.000,0.000
 ElectricEquipment Internal Gains Nominal, CLOTHESWASHER,BACLOTHESWASHERSCHEDULE,ZONE 1,197.70,4.0,328.767,1.663,82.192,0.000,0.800,0.000,0.200,ClothesWasher,0.000,0.000
 ElectricEquipment Internal Gains Nominal, DISHWASHER,BADISHWASHERSCHEDULE,ZONE 1,197.70,4.0,359.300,1.817,89.825,0.150,0.600,0.000,0.250,Dishwasher,0.000,0.000
 ElectricEquipment Internal Gains Nominal, SIZINGSENSIBLE,SIZINGLOADS,ZONE 1,197.70,4.0,658.935,3.333,164.734,0.000,0.000,0.000,1.000,General,0.000,658.935
 ElectricEquipment Internal Gains Nominal, SIZINGLATENT,SIZINGLOADS,ZONE 1,197.70,4.0,111.493,0.564,27.873,1.000,0.000,0.000,0.000,General,0.000,111.493
! <Shadowing/Sun Position Calculations Annual Simulations>, Shading Calculation Method, Shading Calculation Update Frequency Method, Shading Calculation Update Frequency {days}, Maximum Figures in Shadow Overlap Calculations {}, Polygon Clipping Algorithm, Pixel Counting Resolution, Sky Diffuse Modeling Algorithm, Output External Shading Calculation Results, Disable Self-Shading Within Shading Zone Groups, Disable Self-Shading From Shading Zone Groups to Other Zones
Shadowing/Sun Position Calculations Annual Simulations,PolygonClipping,Periodic,20,15000,SutherlandHodgman,512,SimpleSkyDiffuseModeling,No,No,No
! <Water Heater Information>,Type,Name,Volume {m3},Maximum Capacity {W},Standard Rated Recovery Efficiency, Standard Rated Energy Factor
! <ZoneInfiltration Airflow Stats Nominal>,Name,Schedule Name,Zone Name, Zone Floor Area {m2}, # Zone Occupants,Design Volume Flow Rate {m3/s},Volume Flow Rate/Floor Area {m3/s-m2},Volume Flow Rate/Exterior Surface Area {m3/s-m2},ACH - Air Changes per Hour,Equation A - Constant Term Coefficient {},Equation B - Temperature Term Coefficient {1/C},Equation C - Velocity Term Coefficient {s/m}, Equation D - Velocity Squared Term Coefficient {s2/m2}
 ZoneInfiltration Airflow Stats Nominal, ZONE_INFILTRATION,ALWAYS_ON,ZONE 1,197.70,4.0,0.000,0.000,0.000,0.000,0.000,0.000,0.000,0.000
! <ZoneVentilation Airflow Stats Nominal>,Name,Schedule Name,Zone Name, Zone Floor Area {m2}, # Zone Occupants,Design Volume Flow Rate {m3/s},Volume Flow Rate/Floor Area {m3/s-m2},Volume Flow Rate/person Area {m3/s-person},ACH - Air Changes per Hour,Fan Type {Exhaust;Intake;Natural},Fan Pressure Rise {Pa},Fan Efficiency {},Equation A - Constant Term Coefficient {},Equation B - Temperature Term Coefficient {1/C},Equation C - Velocity Term Coefficient {s/m}, Equation D - Velocity Squared Term Coefficient {s2/m2},Minimum Indoor Temperature{C}/Schedule,Maximum Indoor Temperature{C}/Schedule,Delta Temperature{C}/Schedule,Minimum Outdoor Temperature{C}/Schedule,Maximum Outdoor Temperature{C}/Schedule,Maximum WindSpeed{m/s}
 ZoneVentilation Airflow Stats Nominal, OPERABLEWINDOWS-N,Constant-0.0,ZONE 1,197.70,4.0,0.000,0.000,0.000,0.000,Natural,0.000,0.0,0.000,0.000,0.000,0.000,15.00,100.00,-100.00,-100.00,100.00,10.00
 ZoneVentilation Airflow Stats Nominal, OPERABLEWINDOWS-E,Constant-0.0,ZONE 1,197.70,4.0,0.000,0.000,0.000,0.000,Natural,0.000,0.0,0.000,0.000,0.000,0.000,15.00,100.00,-100.00,-100.00,100.00,10.00
 ZoneVentilation Airflow Stats Nominal, OPERABLEWINDOWS-S,Constant-0.0,ZONE 1,197.70,4.0,0.000,0.000,0.000,0.000,Natural,0.000,0.0,0.000,0.000,0.000,0.000,15.00,100.00,-100.00,-100.00,100.00,10.00
 ZoneVentilation Airflow Stats Nominal, OPERABLEWINDOWS-W,Constant-0.0,ZONE 1,197.70,4.0,0.000,0.000,0.000,0.000,Natural,0.000,0.0,0.000,0.000,0.000,0.000,15.00,100.00,-100.00,-100.00,100.00,10.00
! <AirFlow Model>, Simple
 AirFlow Model, Simple
! <RoomAir Model>, Zone Name, Mixing/Mundt/UCSDDV/UCSDCV/UCSDUFI/UCSDUFE/User Defined
RoomAir Model,ZONE 1,Mixing/Well-Stirred
! <AirflowNetwork Model:Control>, No Multizone or Distribution/Multizone with Distribution/Multizone without Distribution/Multizone with Distribution only during Fan Operation
AirflowNetwork Model:Control,NoMultizoneOrDistribution
! <Load Timesteps in Zone Design Calculation Averaging Window>, Value
 Load Timesteps in Zone Design Calculation Averaging Window,    4
! <Heating Sizing Factor Information>, Sizing Factor ID, Value
 Heating Sizing Factor Information, Global,   1.0000    
 Heating Sizing Factor Information, Zone ZONE 1,   2.0000    
! <Cooling Sizing Factor Information>, Sizing Factor ID, Value
 Cooling Sizing Factor Information, Global,   1.0000    
 Cooling Sizing Factor Information, Zone ZONE 1,   1.5000    
! <Zone Sizing Information>, Zone Name, Load Type, Calc Des Load {W}, User Des Load {W}, Calc Des Air Flow Rate {m3/s}, User Des Air Flow Rate {m3/s}, Design Day Name, Date/Time of Peak, Temperature at Peak {C}, Humidity Ratio at Peak {kgWater/kgDryAir}, Floor Area {m2}, # Occupants, Calc Outdoor Air Flow Rate {m3/s}, Calc DOAS Heat Addition Rate {W}
 Zone Sizing Information, ZONE 1, Cooling, 3641.37419, 5462.06128, 0.24415, 0.36623, MONTREAL INT'L ANN CLG .4% CONDNS DB=>MWB, 7/21 16:15:00, 29.25600, 1.35614E-002, 197.69767, 4.00000, 2.83200E-002, 0.00000
 Zone Sizing Information, ZONE 1, Heating, 15554.00172, 31108.00344, 0.42373, 0.84745, MONTREAL INT'L ANN HTG 99.6% CONDNS DB, 1/21 24:00:00, -23.70000, 4.44277E-004, 197.69767, 4.00000, 2.83200E-002, 0.00000
! <Component Sizing Information>, Component Type, Component Name, Input Field Description, Value
 Component Sizing Information, Fan:SystemModel, ZONE1PTHPFAN, Design Size Design Maximum Air Flow Rate [m3/s], 0.84745
 Component Sizing Information, Fan:SystemModel, ZONE1PTHPFAN, Design Electric Power Consumption [W], 271.18512
 Component Sizing Information, ZoneHVAC:PackagedTerminalHeatPump, ZONE1PTHP, Design Size Cooling Supply Air Flow Rate [m3/s], 0.84745
 Component Sizing Information, ZoneHVAC:PackagedTerminalHeatPump, ZONE1PTHP, Design Size Heating Supply Air Flow Rate [m3/s], 0.84745
 Component Sizing Information, ZoneHVAC:PackagedTerminalHeatPump, ZONE1PTHP, User-Specified No Load Supply Air Flow Rate [m3/s], 0.00000
 Component Sizing Information, ZoneHVAC:PackagedTerminalHeatPump, ZONE1PTHP, Design Size Outdoor Air Flow Rate During Cooling Operation [m3/s], 2.83200E-002
 Component Sizing Information, ZoneHVAC:PackagedTerminalHeatPump, ZONE1PTHP, Design Size Outdoor Air Flow Rate During Heating Operation [m3/s], 2.83200E-002
 Component Sizing Information, ZoneHVAC:PackagedTerminalHeatPump, ZONE1PTHP, Design Size Maximum Supply Air Temperature from Supplemental Heater [C], 50.00000
 Component Sizing Information, ZoneHVAC:PackagedTerminalHeatPump, ZONE1PTHP, User-Specified Maximum Supply Air Temperature from Supplemental Heater [C], 50.00000
 Component Sizing Information, Coil:Cooling:DX:SingleSpeed, ZONE1PTHPDXCOOLCOIL, Design Size Rated Air Flow Rate [m3/s], 0.84745
 Component Sizing Information, Coil:Cooling:DX:SingleSpeed, ZONE1PTHPDXCOOLCOIL, Design Size Gross Rated Total Cooling Capacity [W], 16700.70283
 Component Sizing Information, Coil:Cooling:DX:SingleSpeed, ZONE1PTHPDXCOOLCOIL, User-Specified Gross Rated Sensible Heat Ratio, 0.75000
! <DX Cooling Coil Standard Rating Information>, Component Type, Component Name, Standard Rating (Net) Cooling Capacity {W}, Standard Rated Net COP {W/W}, EER {Btu/W-h}, SEER User {Btu/W-h}, SEER Standard {Btu/W-h}, IEER {Btu/W-h}
 DX Cooling Coil Standard Rating Information, Coil:Cooling:DX:SingleSpeed, ZONE1PTHPDXCOOLCOIL, 16042.7, 2.58, 8.80, 9.34, 8.83, 9.08
 Component Sizing Information, Coil:Heating:DX:SingleSpeed, ZONE1PTHPDXHEATCOIL, Design Size Rated Air Flow Rate [m3/s], 0.84745
 Component Sizing Information, Coil:Heating:DX:SingleSpeed, ZONE1PTHPDXHEATCOIL, Design Size Gross Rated Heating Capacity [W], 16700.70283
 Component Sizing Information, Coil:Heating:DX:SingleSpeed, ZONE1PTHPDXHEATCOIL, Design Size Resistive Defrost Heater Capacity [W], 16700.70283
! <DX Heating Coil Standard Rating Information>, Component Type, Component Name, High Temperature Heating (net) Rating Capacity {W}, Low Temperature Heating (net) Rating Capacity {W}, HSPF {Btu/W-h}, Region Number
 DX Heating Coil Standard Rating Information, Coil:Heating:DX:SingleSpeed, ZONE1PTHPDXHEATCOIL, 17376.3, 9622.2, 6.59, 4
 Component Sizing Information, Coil:Heating:Electric, ZONE1PTHPSUPHEATER, Design Size Nominal Capacity [W], 32620.68499
 Component Sizing Information, ZoneHVAC:EnergyRecoveryVentilator, ERV1, User-Specified Supply Air Flow Rate [m3/s], 9.43895E-003
 Component Sizing Information, ZoneHVAC:EnergyRecoveryVentilator, ERV1, User-Specified Exhaust Air Flow Rate [m3/s], 9.43895E-003
 Component Sizing Information, Fan:OnOff, ERV_SUPPLY_FAN, Design Size Maximum Flow Rate [m3/s], 9.43895E-003
 Component Sizing Information, Fan:OnOff, ERV_EXHAUST_FAN, Design Size Maximum Flow Rate [m3/s], 9.43895E-003
 Component Sizing Information, HeatExchanger:AirToAir:SensibleAndLatent, ERV_CORE, Design Size Nominal Supply Air Flow Rate [m3/s], 9.43895E-003
 Component Sizing Information, HeatExchanger:AirToAir:SensibleAndLatent, ERV_CORE, User-Specified Nominal Supply Air Flow Rate [m3/s], 4.70000E-002
Water Heater Information,WaterHeater:Mixed,ELECTRICWATERHEATER_50GAL,0.1892,11712.0,5.556,0.8027
! <Environment>,Environment Name,Environment Type, Start Date, End Date, Start DayOfWeek, Duration {#days}, Source:Start DayOfWeek,  Use Daylight Saving, Use Holidays, Apply Weekend Holiday Rule,  Use Rain Values, Use Snow Values, Sky Temperature Model
! <Environment:Special Days>, Special Day Name, Special Day Type, Source, Start Date, Duration {#days}
! <Environment:Daylight Saving>, Daylight Saving Indicator, Source, Start Date, End Date
! <Environment:WarmupDays>, NumberofWarmupDays
Environment,MONTREAL INT'L ANN HTG 99.6% CONDNS DB,SizingPeriod:DesignDay,01/21,01/21,WinterDesignDay,1,N/A,N/A,N/A,N/A,N/A,N/A,Clark and Allen
Environment:Daylight Saving,No,SizingPeriod:DesignDay
Environment,MONTREAL INT'L ANN HTG 99% CONDNS DB,SizingPeriod:DesignDay,01/21,01/21,WinterDesignDay,1,N/A,N/A,N/A,N/A,N/A,N/A,Clark and Allen
Environment:Daylight Saving,No,SizingPeriod:DesignDay
Environment,MONTREAL INT'L ANN HUM_N 99.6% CONDNS DP=>MCDB,SizingPeriod:DesignDay,01/21,01/21,WinterDesignDay,1,N/A,N/A,N/A,N/A,N/A,N/A,Clark and Allen
Environment:Daylight Saving,No,SizingPeriod:DesignDay
Environment,MONTREAL INT'L ANN HUM_N 99% CONDNS DP=>MCDB,SizingPeriod:DesignDay,01/21,01/21,WinterDesignDay,1,N/A,N/A,N/A,N/A,N/A,N/A,Clark and Allen
Environment:Daylight Saving,No,SizingPeriod:DesignDay
Environment,MONTREAL INT'L ANN HTG WIND 99.6% CONDNS WS=>MCDB,SizingPeriod:DesignDay,01/21,01/21,WinterDesignDay,1,N/A,N/A,N/A,N/A,N/A,N/A,Clark and Allen
Environment:Daylight Saving,No,SizingPeriod:DesignDay
Environment,MONTREAL INT'L ANN HTG WIND 99% CONDNS WS=>MCDB,SizingPeriod:DesignDay,01/21,01/21,WinterDesignDay,1,N/A,N/A,N/A,N/A,N/A,N/A,Clark and Allen
Environment:Daylight Saving,No,SizingPeriod:DesignDay
Environment,MONTREAL INT'L ANN CLG .4% CONDNS DB=>MWB,SizingPeriod:DesignDay,07/21,07/21,SummerDesignDay,1,N/A,N/A,N/A,N/A,N/A,N/A,Clark and Allen
Environment:Daylight Saving,No,SizingPeriod:DesignDay
Environment,MONTREAL INT'L ANN CLG 1% CONDNS DB=>MWB,SizingPeriod:DesignDay,07/21,07/21,SummerDesignDay,1,N/A,N/A,N/A,N/A,N/A,N/A,Clark and Allen
Environment:Daylight Saving,No,SizingPeriod:DesignDay
Environment,MONTREAL INT'L ANN CLG 2% CONDNS DB=>MWB,SizingPeriod:DesignDay,07/21,07/21,SummerDesignDay,1,N/A,N/A,N/A,N/A,N/A,N/A,Clark and Allen
Environment:Daylight Saving,No,SizingPeriod:DesignDay
Environment,MONTREAL INT'L ANN CLG .4% CONDNS WB=>MDB,SizingPeriod:DesignDay,07/21,07/21,SummerDesignDay,1,N/A,N/A,N/A,N/A,N/A,N/A,Clark and Allen
Environment:Daylight Saving,No,SizingPeriod:DesignDay
Environment,MONTREAL INT'L ANN CLG 1% CONDNS WB=>MDB,SizingPeriod:DesignDay,07/21,07/21,SummerDesignDay,1,N/A,N/A,N/A,N/A,N/A,N/A,Clark and Allen
Environment:Daylight Saving,No,SizingPeriod:DesignDay
Environment,MONTREAL INT'L ANN CLG 2% CONDNS WB=>MDB,SizingPeriod:DesignDay,07/21,07/21,SummerDesignDay,1,N/A,N/A,N/A,N/A,N/A,N/A,Clark and Allen
Environment:Daylight Saving,No,SizingPeriod:DesignDay
Environment,MONTREAL INT'L ANN CLG .4% CONDNS DP=>MDB,SizingPeriod:DesignDay,07/21,07/21,SummerDesignDay,1,N/A,N/A,N/A,N/A,N/A,N/A,Clark and Allen
Environment:Daylight Saving,No,SizingPeriod:DesignDay
Environment,MONTREAL INT'L ANN CLG 1% CONDNS DP=>MDB,SizingPeriod:DesignDay,07/21,07/21,SummerDesignDay,1,N/A,N/A,N/A,N/A,N/A,N/A,Clark and Allen
Environment:Daylight Saving,No,SizingPeriod:DesignDay
Environment,MONTREAL INT'L ANN CLG 2% CONDNS DP=>MDB,SizingPeriod:DesignDay,07/21,07/21,SummerDesignDay,1,N/A,N/A,N/A,N/A,N/A,N/A,Clark and Allen
Environment:Daylight Saving,No,SizingPeriod:DesignDay
Environment,MONTREAL INT'L ANN CLG .4% CONDNS ENTH=>MDB,SizingPeriod:DesignDay,07/21,07/21,SummerDesignDay,1,N/A,N/A,N/A,N/A,N/A,N/A,Clark and Allen
Environment:Daylight Saving,No,SizingPeriod:DesignDay
Environment,MONTREAL INT'L ANN CLG 1% CONDNS ENTH=>MDB,SizingPeriod:DesignDay,07/21,07/21,SummerDesignDay,1,N/A,N/A,N/A,N/A,N/A,N/A,Clark and Allen
Environment:Daylight Saving,No,SizingPeriod:DesignDay
Environment,MONTREAL INT'L ANN CLG 2% CONDNS ENTH=>MDB,SizingPeriod:DesignDay,07/21,07/21,SummerDesignDay,1,N/A,N/A,N/A,N/A,N/A,N/A,Clark and Allen
Environment:Daylight Saving,No,SizingPeriod:DesignDay
Environment,ANNUAL,WeatherFileRunPeriod,01/01/2017,12/31/2017,Sunday,365,Use RunPeriod Specified Day,Yes,Yes,No,Yes,Yes,Clark and Allen
Environment:Daylight Saving,No,
Environment,MONTREAL INT'L ANN HTG 99.6% CONDNS DB HVAC Sizing Pass 1,SizingPeriod:DesignDay,01/21,01/21,WinterDesignDay,1,N/A,N/A,N/A,N/A,N/A,N/A,Clark and Allen
Environment:Daylight Saving,No,SizingPeriod:DesignDay
! <Environment:Design Day Data>, Max Dry-Bulb Temp {C}, Temp Range {dC}, Temp Range Ind Type, Hum Ind Type, Hum Ind Value at Max Temp, Hum Ind Units, Pressure {Pa}, Wind Direction {deg CW from N}, Wind Speed {m/s}, Clearness, Rain, Snow
! <Environment:Design Day Misc>,DayOfYear,ASHRAE A Coeff,ASHRAE B Coeff,ASHRAE C Coeff,Solar Constant-Annual Variation,Eq of Time {minutes}, Solar Declination Angle {deg}, Solar Model
Environment:Design Day Data,-23.70,0.00,DefaultMultipliers,Wetbulb,-23.70,{C},100893,260,3.9,0.00,No,No
Environment:Design Day Misc, 21,1229.0,0.1415,5.7310E-002,1.0,-11.15,-20.1,ASHRAEClearSky
Environment:WarmupDays,  6
! <Tabular Report>,Style,Unit Conversion
Tabular Report,HTML,INCHPOUND
! <Warmup Convergence Information>,Zone Name,Environment Type/Name,Average Warmup Temperature Difference {deltaC},Std Dev Warmup Temperature Difference {deltaC},Max Temperature Pass/Fail Convergence,Min Temperature Pass/Fail Convergence,Average Warmup Load Difference {W},Std Dev Warmup Load Difference {W},Heating Load Pass/Fail Convergence,Cooling Load Pass/Fail Convergence
 Warmup Convergence Information,ZONE 1,SizingPeriod: MONTREAL INT'L ANN HTG 99.6% CONDNS DB HVAC Sizing Pass 1,9.8161033423E-005,4.1964723787E-004,Pass,Pass,1.4266664404E-003,2.3470909465E-003,Pass,Pass
Environment,MONTREAL INT'L ANN HTG 99% CONDNS DB HVAC Sizing Pass 1,SizingPeriod:DesignDay,01/21,01/21,WinterDesignDay,1,N/A,N/A,N/A,N/A,N/A,N/A,Clark and Allen
Environment:Daylight Saving,No,SizingPeriod:DesignDay
Environment:Design Day Data,-21.10,0.00,DefaultMultipliers,Wetbulb,-21.10,{C},100893,260,3.9,0.00,No,No
Environment:Design Day Misc, 21,1229.0,0.1415,5.7310E-002,1.0,-11.15,-20.1,ASHRAEClearSky
Environment:WarmupDays,  6
 Warmup Convergence Information,ZONE 1,SizingPeriod: MONTREAL INT'L ANN HTG 99% CONDNS DB HVAC Sizing Pass 1,9.9881952089E-005,4.2210802231E-004,Pass,Pass,1.5735092200E-003,2.6119853600E-003,Pass,Pass
Environment,MONTREAL INT'L ANN HUM_N 99.6% CONDNS DP=>MCDB HVAC Sizing Pass 1,SizingPeriod:DesignDay,01/21,01/21,WinterDesignDay,1,N/A,N/A,N/A,N/A,N/A,N/A,Clark and Allen
Environment:Daylight Saving,No,SizingPeriod:DesignDay
Environment:Design Day Data,-23.00,0.00,DefaultMultipliers,Dewpoint,-30.50,{C},100893,260,3.9,0.00,No,No
Environment:Design Day Misc, 21,1229.0,0.1415,5.7310E-002,1.0,-11.15,-20.1,ASHRAEClearSky
Environment:WarmupDays,  6
 Warmup Convergence Information,ZONE 1,SizingPeriod: MONTREAL INT'L ANN HUM_N 99.6% CONDNS DP=>MCDB HVAC Sizing Pass 1,9.8203216915E-005,4.1958085150E-004,Pass,Pass,1.4597515983E-003,2.4085570864E-003,Pass,Pass
Environment,MONTREAL INT'L ANN HUM_N 99% CONDNS DP=>MCDB HVAC Sizing Pass 1,SizingPeriod:DesignDay,01/21,01/21,WinterDesignDay,1,N/A,N/A,N/A,N/A,N/A,N/A,Clark and Allen
Environment:Daylight Saving,No,SizingPeriod:DesignDay
Environment:Design Day Data,-20.60,0.00,DefaultMultipliers,Dewpoint,-27.90,{C},100893,260,3.9,0.00,No,No
Environment:Design Day Misc, 21,1229.0,0.1415,5.7310E-002,1.0,-11.15,-20.1,ASHRAEClearSky
Environment:WarmupDays,  6
 Warmup Convergence Information,ZONE 1,SizingPeriod: MONTREAL INT'L ANN HUM_N 99% CONDNS DP=>MCDB HVAC Sizing Pass 1,9.9662444556E-005,4.2091537191E-004,Pass,Pass,1.5980559604E-003,2.6551235304E-003,Pass,Pass
Environment,MONTREAL INT'L ANN HTG WIND 99.6% CONDNS WS=>MCDB HVAC Sizing Pass 1,SizingPeriod:DesignDay,01/21,01/21,WinterDesignDay,1,N/A,N/A,N/A,N/A,N/A,N/A,Clark and Allen
Environment:Daylight Saving,No,SizingPeriod:DesignDay
Environment:Design Day Data,-5.30,0.00,DefaultMultipliers,Wetbulb,-5.30,{C},100893,260,12.9,0.00,No,No
Environment:Design Day Misc, 21,1229.0,0.1415,5.7310E-002,1.0,-11.15,-20.1,ASHRAEClearSky
Environment:WarmupDays,  6
 Warmup Convergence Information,ZONE 1,SizingPeriod: MONTREAL INT'L ANN HTG WIND 99.6% CONDNS WS=>MCDB HVAC Sizing Pass 1,1.0195431213E-004,3.8524908963E-004,Pass,Pass,2.5176228781E-003,4.4167538964E-003,Pass,Pass
Environment,MONTREAL INT'L ANN HTG WIND 99% CONDNS WS=>MCDB HVAC Sizing Pass 1,SizingPeriod:DesignDay,01/21,01/21,WinterDesignDay,1,N/A,N/A,N/A,N/A,N/A,N/A,Clark and Allen
Environment:Daylight Saving,No,SizingPeriod:DesignDay
Environment:Design Day Data,-7.90,0.00,DefaultMultipliers,Wetbulb,-7.90,{C},100893,260,11.5,0.00,No,No
Environment:Design Day Misc, 21,1229.0,0.1415,5.7310E-002,1.0,-11.15,-20.1,ASHRAEClearSky
Environment:WarmupDays,  6
 Warmup Convergence Information,ZONE 1,SizingPeriod: MONTREAL INT'L ANN HTG WIND 99% CONDNS WS=>MCDB HVAC Sizing Pass 1,1.0630159981E-004,4.1244580870E-004,Pass,Pass,2.3321076151E-003,4.0390989604E-003,Pass,Pass
Environment,MONTREAL INT'L ANN CLG .4% CONDNS DB=>MWB HVAC Sizing Pass 1,SizingPeriod:DesignDay,07/21,07/21,SummerDesignDay,1,N/A,N/A,N/A,N/A,N/A,N/A,Clark and Allen
Environment:Daylight Saving,No,SizingPeriod:DesignDay
Environment:Design Day Data,30.00,9.30,DefaultMultipliers,Wetbulb,22.10,{C},100893,220,4.9,0.00,No,No
Environment:Design Day Misc,202,1084.4,0.2082,0.1365,1.0,-6.23,20.6,ASHRAETau
Environment:WarmupDays,  6
 Warmup Convergence Information,ZONE 1,SizingPeriod: MONTREAL INT'L ANN CLG .4% CONDNS DB=>MWB HVAC Sizing Pass 1,1.5570175170E-002,2.8471251798E-002,Pass,Pass,0.1044845328,0.2598366469,Pass,Pass
Environment,MONTREAL INT'L ANN CLG 1% CONDNS DB=>MWB HVAC Sizing Pass 1,SizingPeriod:DesignDay,07/21,07/21,SummerDesignDay,1,N/A,N/A,N/A,N/A,N/A,N/A,Clark and Allen
Environment:Daylight Saving,No,SizingPeriod:DesignDay
Environment:Design Day Data,28.50,9.30,DefaultMultipliers,Wetbulb,21.10,{C},100893,220,4.9,0.00,No,No
Environment:Design Day Misc,202,1084.4,0.2082,0.1365,1.0,-6.23,20.6,ASHRAETau
Environment:WarmupDays,  6
 Warmup Convergence Information,ZONE 1,SizingPeriod: MONTREAL INT'L ANN CLG 1% CONDNS DB=>MWB HVAC Sizing Pass 1,2.3919458114E-002,3.7874886674E-002,Pass,Pass,0.1033792547,0.2405956988,Pass,Pass
Environment,MONTREAL INT'L ANN CLG 2% CONDNS DB=>MWB HVAC Sizing Pass 1,SizingPeriod:DesignDay,07/21,07/21,SummerDesignDay,1,N/A,N/A,N/A,N/A,N/A,N/A,Clark and Allen
Environment:Daylight Saving,No,SizingPeriod:DesignDay
Environment:Design Day Data,27.10,9.30,DefaultMultipliers,Wetbulb,20.20,{C},100893,220,4.9,0.00,No,No
Environment:Design Day Misc,202,1084.4,0.2082,0.1365,1.0,-6.23,20.6,ASHRAETau
Environment:WarmupDays,  6
 Warmup Convergence Information,ZONE 1,SizingPeriod: MONTREAL INT'L ANN CLG 2% CONDNS DB=>MWB HVAC Sizing Pass 1,3.3286648581E-002,4.5470259958E-002,Pass,Pass,0.1006561411,0.2484378642,Pass,Pass
Environment,MONTREAL INT'L ANN CLG .4% CONDNS WB=>MDB HVAC Sizing Pass 1,SizingPeriod:DesignDay,07/21,07/21,SummerDesignDay,1,N/A,N/A,N/A,N/A,N/A,N/A,Clark and Allen
Environment:Daylight Saving,No,SizingPeriod:DesignDay
Environment:Design Day Data,28.10,9.30,DefaultMultipliers,Wetbulb,23.20,{C},100893,220,4.9,0.00,No,No
Environment:Design Day Misc,202,1084.4,0.2082,0.1365,1.0,-6.23,20.6,ASHRAETau
Environment:WarmupDays,  6
 Warmup Convergence Information,ZONE 1,SizingPeriod: MONTREAL INT'L ANN CLG .4% CONDNS WB=>MDB HVAC Sizing Pass 1,2.5993153309E-002,3.9677308616E-002,Pass,Pass,0.1030374377,0.2450541172,Pass,Pass
Environment,MONTREAL INT'L ANN CLG 1% CONDNS WB=>MDB HVAC Sizing Pass 1,SizingPeriod:DesignDay,07/21,07/21,SummerDesignDay,1,N/A,N/A,N/A,N/A,N/A,N/A,Clark and Allen
Environment:Daylight Saving,No,SizingPeriod:DesignDay
Environment:Design Day Data,26.60,9.30,DefaultMultipliers,Wetbulb,22.20,{C},100893,220,4.9,0.00,No,No
Environment:Design Day Misc,202,1084.4,0.2082,0.1365,1.0,-6.23,20.6,ASHRAETau
Environment:WarmupDays,  6
 Warmup Convergence Information,ZONE 1,SizingPeriod: MONTREAL INT'L ANN CLG 1% CONDNS WB=>MDB HVAC Sizing Pass 1,3.6256510678E-002,4.7589691601E-002,Pass,Pass,9.8569484330E-002,0.2367606014,Pass,Pass
Environment,MONTREAL INT'L ANN CLG 2% CONDNS WB=>MDB HVAC Sizing Pass 1,SizingPeriod:DesignDay,07/21,07/21,SummerDesignDay,1,N/A,N/A,N/A,N/A,N/A,N/A,Clark and Allen
Environment:Daylight Saving,No,SizingPeriod:DesignDay
Environment:Design Day Data,25.60,9.30,DefaultMultipliers,Wetbulb,21.40,{C},100893,220,4.9,0.00,No,No
Environment:Design Day Misc,202,1084.4,0.2082,0.1365,1.0,-6.23,20.6,ASHRAETau
Environment:WarmupDays,  6
 Warmup Convergence Information,ZONE 1,SizingPeriod: MONTREAL INT'L ANN CLG 2% CONDNS WB=>MDB HVAC Sizing Pass 1,4.3514761196E-002,5.2233167788E-002,Pass,Pass,9.3934638912E-002,0.2050340098,Pass,Pass
Environment,MONTREAL INT'L ANN CLG .4% CONDNS DP=>MDB HVAC Sizing Pass 1,SizingPeriod:DesignDay,07/21,07/21,SummerDesignDay,1,N/A,N/A,N/A,N/A,N/A,N/A,Clark and Allen
Environment:Daylight Saving,No,SizingPeriod:DesignDay
Environment:Design Day Data,26.00,9.30,DefaultMultipliers,Dewpoint,21.60,{C},100893,220,4.9,0.00,No,No
Environment:Design Day Misc,202,1084.4,0.2082,0.1365,1.0,-6.23,20.6,ASHRAETau
Environment:WarmupDays,  6
 Warmup Convergence Information,ZONE 1,SizingPeriod: MONTREAL INT'L ANN CLG .4% CONDNS DP=>MDB HVAC Sizing Pass 1,4.0478483519E-002,5.0673460536E-002,Pass,Pass,9.4066860112E-002,0.2040393559,Pass,Pass
Environment,MONTREAL INT'L ANN CLG 1% CONDNS DP=>MDB HVAC Sizing Pass 1,SizingPeriod:DesignDay,07/21,07/21,SummerDesignDay,1,N/A,N/A,N/A,N/A,N/A,N/A,Clark and Allen
Environment:Daylight Saving,No,SizingPeriod:DesignDay
Environment:Design Day Data,25.20,9.30,DefaultMultipliers,Dewpoint,20.70,{C},100893,220,4.9,0.00,No,No
Environment:Design Day Misc,202,1084.4,0.2082,0.1365,1.0,-6.23,20.6,ASHRAETau
Environment:WarmupDays,  6
 Warmup Convergence Information,ZONE 1,SizingPeriod: MONTREAL INT'L ANN CLG 1% CONDNS DP=>MDB HVAC Sizing Pass 1,4.6466002497E-002,5.3835181407E-002,Pass,Pass,9.5793231416E-002,0.2246098134,Pass,Pass
Environment,MONTREAL INT'L ANN CLG 2% CONDNS DP=>MDB HVAC Sizing Pass 1,SizingPeriod:DesignDay,07/21,07/21,SummerDesignDay,1,N/A,N/A,N/A,N/A,N/A,N/A,Clark and Allen
Environment:Daylight Saving,No,SizingPeriod:DesignDay
Environment:Design Day Data,24.20,9.30,DefaultMultipliers,Dewpoint,19.80,{C},100893,220,4.9,0.00,No,No
Environment:Design Day Misc,202,1084.4,0.2082,0.1365,1.0,-6.23,20.6,ASHRAETau
Environment:WarmupDays,  6
 Warmup Convergence Information,ZONE 1,SizingPeriod: MONTREAL INT'L ANN CLG 2% CONDNS DP=>MDB HVAC Sizing Pass 1,5.3815721257E-002,5.7131399137E-002,Pass,Pass,9.6206505702E-002,0.2426649604,Pass,Pass
Environment,MONTREAL INT'L ANN CLG .4% CONDNS ENTH=>MDB HVAC Sizing Pass 1,SizingPeriod:DesignDay,07/21,07/21,SummerDesignDay,1,N/A,N/A,N/A,N/A,N/A,N/A,Clark and Allen
Environment:Daylight Saving,No,SizingPeriod:DesignDay
Environment:Design Day Data,28.10,9.30,DefaultMultipliers,Enthalpy,69300.00,{J/kgDryAir},100893,220,4.9,0.00,No,No
Environment:Design Day Misc,202,1084.4,0.2082,0.1365,1.0,-6.23,20.6,ASHRAETau
Environment:WarmupDays,  6
 Warmup Convergence Information,ZONE 1,SizingPeriod: MONTREAL INT'L ANN CLG .4% CONDNS ENTH=>MDB HVAC Sizing Pass 1,2.5987519520E-002,3.9674353177E-002,Pass,Pass,0.1030464525,0.2452119797,Pass,Pass
Environment,MONTREAL INT'L ANN CLG 1% CONDNS ENTH=>MDB HVAC Sizing Pass 1,SizingPeriod:DesignDay,07/21,07/21,SummerDesignDay,1,N/A,N/A,N/A,N/A,N/A,N/A,Clark and Allen
Environment:Daylight Saving,No,SizingPeriod:DesignDay
Environment:Design Day Data,26.70,9.30,DefaultMultipliers,Enthalpy,65500.00,{J/kgDryAir},100893,220,4.9,0.00,No,No
Environment:Design Day Misc,202,1084.4,0.2082,0.1365,1.0,-6.23,20.6,ASHRAETau
Environment:WarmupDays,  6
 Warmup Convergence Information,ZONE 1,SizingPeriod: MONTREAL INT'L ANN CLG 1% CONDNS ENTH=>MDB HVAC Sizing Pass 1,3.5572098625E-002,4.7132851169E-002,Pass,Pass,9.8015294753E-002,0.2357017480,Pass,Pass
Environment,MONTREAL INT'L ANN CLG 2% CONDNS ENTH=>MDB HVAC Sizing Pass 1,SizingPeriod:DesignDay,07/21,07/21,SummerDesignDay,1,N/A,N/A,N/A,N/A,N/A,N/A,Clark and Allen
Environment:Daylight Saving,No,SizingPeriod:DesignDay
Environment:Design Day Data,25.60,9.30,DefaultMultipliers,Enthalpy,62300.00,{J/kgDryAir},100893,220,4.9,0.00,No,No
Environment:Design Day Misc,202,1084.4,0.2082,0.1365,1.0,-6.23,20.6,ASHRAETau
Environment:WarmupDays,  6
 Warmup Convergence Information,ZONE 1,SizingPeriod: MONTREAL INT'L ANN CLG 2% CONDNS ENTH=>MDB HVAC Sizing Pass 1,4.3515473021E-002,5.2232788298E-002,Pass,Pass,9.3912629645E-002,0.2049871991,Pass,Pass
Environment,MONTREAL INT'L ANN HTG 99.6% CONDNS DB,SizingPeriod:DesignDay,01/21,01/21,WinterDesignDay,1,N/A,N/A,N/A,N/A,N/A,N/A,Clark and Allen
Environment:Daylight Saving,No,SizingPeriod:DesignDay
Environment:Design Day Data,-23.70,0.00,DefaultMultipliers,Wetbulb,-23.70,{C},100893,260,3.9,0.00,No,No
Environment:Design Day Misc, 21,1229.0,0.1415,5.7310E-002,1.0,-11.15,-20.1,ASHRAEClearSky
Environment,MONTREAL INT'L ANN HTG 99% CONDNS DB,SizingPeriod:DesignDay,01/21,01/21,WinterDesignDay,1,N/A,N/A,N/A,N/A,N/A,N/A,Clark and Allen
Environment:Daylight Saving,No,SizingPeriod:DesignDay
Environment:Design Day Data,-21.10,0.00,DefaultMultipliers,Wetbulb,-21.10,{C},100893,260,3.9,0.00,No,No
Environment:Design Day Misc, 21,1229.0,0.1415,5.7310E-002,1.0,-11.15,-20.1,ASHRAEClearSky
Environment,MONTREAL INT'L ANN HUM_N 99.6% CONDNS DP=>MCDB,SizingPeriod:DesignDay,01/21,01/21,WinterDesignDay,1,N/A,N/A,N/A,N/A,N/A,N/A,Clark and Allen
Environment:Daylight Saving,No,SizingPeriod:DesignDay
Environment:Design Day Data,-23.00,0.00,DefaultMultipliers,Dewpoint,-30.50,{C},100893,260,3.9,0.00,No,No
Environment:Design Day Misc, 21,1229.0,0.1415,5.7310E-002,1.0,-11.15,-20.1,ASHRAEClearSky
Environment,MONTREAL INT'L ANN HUM_N 99% CONDNS DP=>MCDB,SizingPeriod:DesignDay,01/21,01/21,WinterDesignDay,1,N/A,N/A,N/A,N/A,N/A,N/A,Clark and Allen
Environment:Daylight Saving,No,SizingPeriod:DesignDay
Environment:Design Day Data,-20.60,0.00,DefaultMultipliers,Dewpoint,-27.90,{C},100893,260,3.9,0.00,No,No
Environment:Design Day Misc, 21,1229.0,0.1415,5.7310E-002,1.0,-11.15,-20.1,ASHRAEClearSky
Environment,MONTREAL INT'L ANN HTG WIND 99.6% CONDNS WS=>MCDB,SizingPeriod:DesignDay,01/21,01/21,WinterDesignDay,1,N/A,N/A,N/A,N/A,N/A,N/A,Clark and Allen
Environment:Daylight Saving,No,SizingPeriod:DesignDay
Environment:Design Day Data,-5.30,0.00,DefaultMultipliers,Wetbulb,-5.30,{C},100893,260,12.9,0.00,No,No
Environment:Design Day Misc, 21,1229.0,0.1415,5.7310E-002,1.0,-11.15,-20.1,ASHRAEClearSky
Environment,MONTREAL INT'L ANN HTG WIND 99% CONDNS WS=>MCDB,SizingPeriod:DesignDay,01/21,01/21,WinterDesignDay,1,N/A,N/A,N/A,N/A,N/A,N/A,Clark and Allen
Environment:Daylight Saving,No,SizingPeriod:DesignDay
Environment:Design Day Data,-7.90,0.00,DefaultMultipliers,Wetbulb,-7.90,{C},100893,260,11.5,0.00,No,No
Environment:Design Day Misc, 21,1229.0,0.1415,5.7310E-002,1.0,-11.15,-20.1,ASHRAEClearSky
Environment,MONTREAL INT'L ANN CLG .4% CONDNS DB=>MWB,SizingPeriod:DesignDay,07/21,07/21,SummerDesignDay,1,N/A,N/A,N/A,N/A,N/A,N/A,Clark and Allen
Environment:Daylight Saving,No,SizingPeriod:DesignDay
Environment:Design Day Data,30.00,9.30,DefaultMultipliers,Wetbulb,22.10,{C},100893,220,4.9,0.00,No,No
Environment:Design Day Misc,202,1084.4,0.2082,0.1365,1.0,-6.23,20.6,ASHRAETau
Environment,MONTREAL INT'L ANN CLG 1% CONDNS DB=>MWB,SizingPeriod:DesignDay,07/21,07/21,SummerDesignDay,1,N/A,N/A,N/A,N/A,N/A,N/A,Clark and Allen
Environment:Daylight Saving,No,SizingPeriod:DesignDay
Environment:Design Day Data,28.50,9.30,DefaultMultipliers,Wetbulb,21.10,{C},100893,220,4.9,0.00,No,No
Environment:Design Day Misc,202,1084.4,0.2082,0.1365,1.0,-6.23,20.6,ASHRAETau
Environment,MONTREAL INT'L ANN CLG 2% CONDNS DB=>MWB,SizingPeriod:DesignDay,07/21,07/21,SummerDesignDay,1,N/A,N/A,N/A,N/A,N/A,N/A,Clark and Allen
Environment:Daylight Saving,No,SizingPeriod:DesignDay
Environment:Design Day Data,27.10,9.30,DefaultMultipliers,Wetbulb,20.20,{C},100893,220,4.9,0.00,No,No
Environment:Design Day Misc,202,1084.4,0.2082,0.1365,1.0,-6.23,20.6,ASHRAETau
Environment,MONTREAL INT'L ANN CLG .4% CONDNS WB=>MDB,SizingPeriod:DesignDay,07/21,07/21,SummerDesignDay,1,N/A,N/A,N/A,N/A,N/A,N/A,Clark and Allen
Environment:Daylight Saving,No,SizingPeriod:DesignDay
Environment:Design Day Data,28.10,9.30,DefaultMultipliers,Wetbulb,23.20,{C},100893,220,4.9,0.00,No,No
Environment:Design Day Misc,202,1084.4,0.2082,0.1365,1.0,-6.23,20.6,ASHRAETau
Environment,MONTREAL INT'L ANN CLG 1% CONDNS WB=>MDB,SizingPeriod:DesignDay,07/21,07/21,SummerDesignDay,1,N/A,N/A,N/A,N/A,N/A,N/A,Clark and Allen
Environment:Daylight Saving,No,SizingPeriod:DesignDay
Environment:Design Day Data,26.60,9.30,DefaultMultipliers,Wetbulb,22.20,{C},100893,220,4.9,0.00,No,No
Environment:Design Day Misc,202,1084.4,0.2082,0.1365,1.0,-6.23,20.6,ASHRAETau
Environment,MONTREAL INT'L ANN CLG 2% CONDNS WB=>MDB,SizingPeriod:DesignDay,07/21,07/21,SummerDesignDay,1,N/A,N/A,N/A,N/A,N/A,N/A,Clark and Allen
Environment:Daylight Saving,No,SizingPeriod:DesignDay
Environment:Design Day Data,25.60,9.30,DefaultMultipliers,Wetbulb,21.40,{C},100893,220,4.9,0.00,No,No
Environment:Design Day Misc,202,1084.4,0.2082,0.1365,1.0,-6.23,20.6,ASHRAETau
Environment,MONTREAL INT'L ANN CLG .4% CONDNS DP=>MDB,SizingPeriod:DesignDay,07/21,07/21,SummerDesignDay,1,N/A,N/A,N/A,N/A,N/A,N/A,Clark and Allen
Environment:Daylight Saving,No,SizingPeriod:DesignDay
Environment:Design Day Data,26.00,9.30,DefaultMultipliers,Dewpoint,21.60,{C},100893,220,4.9,0.00,No,No
Environment:Design Day Misc,202,1084.4,0.2082,0.1365,1.0,-6.23,20.6,ASHRAETau
Environment,MONTREAL INT'L ANN CLG 1% CONDNS DP=>MDB,SizingPeriod:DesignDay,07/21,07/21,SummerDesignDay,1,N/A,N/A,N/A,N/A,N/A,N/A,Clark and Allen
Environment:Daylight Saving,No,SizingPeriod:DesignDay
Environment:Design Day Data,25.20,9.30,DefaultMultipliers,Dewpoint,20.70,{C},100893,220,4.9,0.00,No,No
Environment:Design Day Misc,202,1084.4,0.2082,0.1365,1.0,-6.23,20.6,ASHRAETau
Environment,MONTREAL INT'L ANN CLG 2% CONDNS DP=>MDB,SizingPeriod:DesignDay,07/21,07/21,SummerDesignDay,1,N/A,N/A,N/A,N/A,N/A,N/A,Clark and Allen
Environment:Daylight Saving,No,SizingPeriod:DesignDay
Environment:Design Day Data,24.20,9.30,DefaultMultipliers,Dewpoint,19.80,{C},100893,220,4.9,0.00,No,No
Environment:Design Day Misc,202,1084.4,0.2082,0.1365,1.0,-6.23,20.6,ASHRAETau
Environment,MONTREAL INT'L ANN CLG .4% CONDNS ENTH=>MDB,SizingPeriod:DesignDay,07/21,07/21,SummerDesignDay,1,N/A,N/A,N/A,N/A,N/A,N/A,Clark and Allen
Environment:Daylight Saving,No,SizingPeriod:DesignDay
Environment:Design Day Data,28.10,9.30,DefaultMultipliers,Enthalpy,69300.00,{J/kgDryAir},100893,220,4.9,0.00,No,No
Environment:Design Day Misc,202,1084.4,0.2082,0.1365,1.0,-6.23,20.6,ASHRAETau
Environment,MONTREAL INT'L ANN CLG 1% CONDNS ENTH=>MDB,SizingPeriod:DesignDay,07/21,07/21,SummerDesignDay,1,N/A,N/A,N/A,N/A,N/A,N/A,Clark and Allen
Environment:Daylight Saving,No,SizingPeriod:DesignDay
Environment:Design Day Data,26.70,9.30,DefaultMultipliers,Enthalpy,65500.00,{J/kgDryAir},100893,220,4.9,0.00,No,No
Environment:Design Day Misc,202,1084.4,0.2082,0.1365,1.0,-6.23,20.6,ASHRAETau
Environment,MONTREAL INT'L ANN CLG 2% CONDNS ENTH=>MDB,SizingPeriod:DesignDay,07/21,07/21,SummerDesignDay,1,N/A,N/A,N/A,N/A,N/A,N/A,Clark and Allen
Environment:Daylight Saving,No,SizingPeriod:DesignDay
Environment:Design Day Data,25.60,9.30,DefaultMultipliers,Enthalpy,62300.00,{J/kgDryAir},100893,220,4.9,0.00,No,No
Environment:Design Day Misc,202,1084.4,0.2082,0.1365,1.0,-6.23,20.6,ASHRAETau
Environment,ANNUAL,WeatherFileRunPeriod,01/01/2017,12/31/2017,Sunday,365,Use RunPeriod Specified Day,Yes,Yes,No,Yes,Yes,Clark and Allen
Environment,MONTREAL INT'L ANN HTG 99.6% CONDNS DB HVAC Sizing Pass 1,SizingPeriod:DesignDay,01/21,01/21,WinterDesignDay,1,N/A,N/A,N/A,N/A,N/A,N/A,Clark and Allen
Environment:Daylight Saving,No,SizingPeriod:DesignDay
Environment:Design Day Data,-23.70,0.00,DefaultMultipliers,Wetbulb,-23.70,{C},100893,260,3.9,0.00,No,No
Environment:Design Day Misc, 21,1229.0,0.1415,5.7310E-002,1.0,-11.15,-20.1,ASHRAEClearSky
Environment,MONTREAL INT'L ANN HTG 99% CONDNS DB HVAC Sizing Pass 1,SizingPeriod:DesignDay,01/21,01/21,WinterDesignDay,1,N/A,N/A,N/A,N/A,N/A,N/A,Clark and Allen
Environment:Daylight Saving,No,SizingPeriod:DesignDay
Environment:Design Day Data,-21.10,0.00,DefaultMultipliers,Wetbulb,-21.10,{C},100893,260,3.9,0.00,No,No
Environment:Design Day Misc, 21,1229.0,0.1415,5.7310E-002,1.0,-11.15,-20.1,ASHRAEClearSky
Environment,MONTREAL INT'L ANN HUM_N 99.6% CONDNS DP=>MCDB HVAC Sizing Pass 1,SizingPeriod:DesignDay,01/21,01/21,WinterDesignDay,1,N/A,N/A,N/A,N/A,N/A,N/A,Clark and Allen
Environment:Daylight Saving,No,SizingPeriod:DesignDay
Environment:Design Day Data,-23.00,0.00,DefaultMultipliers,Dewpoint,-30.50,{C},100893,260,3.9,0.00,No,No
Environment:Design Day Misc, 21,1229.0,0.1415,5.7310E-002,1.0,-11.15,-20.1,ASHRAEClearSky
Environment,MONTREAL INT'L ANN HUM_N 99% CONDNS DP=>MCDB HVAC Sizing Pass 1,SizingPeriod:DesignDay,01/21,01/21,WinterDesignDay,1,N/A,N/A,N/A,N/A,N/A,N/A,Clark and Allen
Environment:Daylight Saving,No,SizingPeriod:DesignDay
Environment:Design Day Data,-20.60,0.00,DefaultMultipliers,Dewpoint,-27.90,{C},100893,260,3.9,0.00,No,No
Environment:Design Day Misc, 21,1229.0,0.1415,5.7310E-002,1.0,-11.15,-20.1,ASHRAEClearSky
Environment,MONTREAL INT'L ANN HTG WIND 99.6% CONDNS WS=>MCDB HVAC Sizing Pass 1,SizingPeriod:DesignDay,01/21,01/21,WinterDesignDay,1,N/A,N/A,N/A,N/A,N/A,N/A,Clark and Allen
Environment:Daylight Saving,No,SizingPeriod:DesignDay
Environment:Design Day Data,-5.30,0.00,DefaultMultipliers,Wetbulb,-5.30,{C},100893,260,12.9,0.00,No,No
Environment:Design Day Misc, 21,1229.0,0.1415,5.7310E-002,1.0,-11.15,-20.1,ASHRAEClearSky
Environment,MONTREAL INT'L ANN HTG WIND 99% CONDNS WS=>MCDB HVAC Sizing Pass 1,SizingPeriod:DesignDay,01/21,01/21,WinterDesignDay,1,N/A,N/A,N/A,N/A,N/A,N/A,Clark and Allen
Environment:Daylight Saving,No,SizingPeriod:DesignDay
Environment:Design Day Data,-7.90,0.00,DefaultMultipliers,Wetbulb,-7.90,{C},100893,260,11.5,0.00,No,No
Environment:Design Day Misc, 21,1229.0,0.1415,5.7310E-002,1.0,-11.15,-20.1,ASHRAEClearSky
Environment,MONTREAL INT'L ANN CLG .4% CONDNS DB=>MWB HVAC Sizing Pass 1,SizingPeriod:DesignDay,07/21,07/21,SummerDesignDay,1,N/A,N/A,N/A,N/A,N/A,N/A,Clark and Allen
Environment:Daylight Saving,No,SizingPeriod:DesignDay
Environment:Design Day Data,30.00,9.30,DefaultMultipliers,Wetbulb,22.10,{C},100893,220,4.9,0.00,No,No
Environment:Design Day Misc,202,1084.4,0.2082,0.1365,1.0,-6.23,20.6,ASHRAETau
Environment,MONTREAL INT'L ANN CLG 1% CONDNS DB=>MWB HVAC Sizing Pass 1,SizingPeriod:DesignDay,07/21,07/21,SummerDesignDay,1,N/A,N/A,N/A,N/A,N/A,N/A,Clark and Allen
Environment:Daylight Saving,No,SizingPeriod:DesignDay
Environment:Design Day Data,28.50,9.30,DefaultMultipliers,Wetbulb,21.10,{C},100893,220,4.9,0.00,No,No
Environment:Design Day Misc,202,1084.4,0.2082,0.1365,1.0,-6.23,20.6,ASHRAETau
Environment,MONTREAL INT'L ANN CLG 2% CONDNS DB=>MWB HVAC Sizing Pass 1,SizingPeriod:DesignDay,07/21,07/21,SummerDesignDay,1,N/A,N/A,N/A,N/A,N/A,N/A,Clark and Allen
Environment:Daylight Saving,No,SizingPeriod:DesignDay
Environment:Design Day Data,27.10,9.30,DefaultMultipliers,Wetbulb,20.20,{C},100893,220,4.9,0.00,No,No
Environment:Design Day Misc,202,1084.4,0.2082,0.1365,1.0,-6.23,20.6,ASHRAETau
Environment,MONTREAL INT'L ANN CLG .4% CONDNS WB=>MDB HVAC Sizing Pass 1,SizingPeriod:DesignDay,07/21,07/21,SummerDesignDay,1,N/A,N/A,N/A,N/A,N/A,N/A,Clark and Allen
Environment:Daylight Saving,No,SizingPeriod:DesignDay
Environment:Design Day Data,28.10,9.30,DefaultMultipliers,Wetbulb,23.20,{C},100893,220,4.9,0.00,No,No
Environment:Design Day Misc,202,1084.4,0.2082,0.1365,1.0,-6.23,20.6,ASHRAETau
Environment,MONTREAL INT'L ANN CLG 1% CONDNS WB=>MDB HVAC Sizing Pass 1,SizingPeriod:DesignDay,07/21,07/21,SummerDesignDay,1,N/A,N/A,N/A,N/A,N/A,N/A,Clark and Allen
Environment:Daylight Saving,No,SizingPeriod:DesignDay
Environment:Design Day Data,26.60,9.30,DefaultMultipliers,Wetbulb,22.20,{C},100893,220,4.9,0.00,No,No
Environment:Design Day Misc,202,1084.4,0.2082,0.1365,1.0,-6.23,20.6,ASHRAETau
Environment,MONTREAL INT'L ANN CLG 2% CONDNS WB=>MDB HVAC Sizing Pass 1,SizingPeriod:DesignDay,07/21,07/21,SummerDesignDay,1,N/A,N/A,N/A,N/A,N/A,N/A,Clark and Allen
Environment:Daylight Saving,No,SizingPeriod:DesignDay
Environment:Design Day Data,25.60,9.30,DefaultMultipliers,Wetbulb,21.40,{C},100893,220,4.9,0.00,No,No
Environment:Design Day Misc,202,1084.4,0.2082,0.1365,1.0,-6.23,20.6,ASHRAETau
Environment,MONTREAL INT'L ANN CLG .4% CONDNS DP=>MDB HVAC Sizing Pass 1,SizingPeriod:DesignDay,07/21,07/21,SummerDesignDay,1,N/A,N/A,N/A,N/A,N/A,N/A,Clark and Allen
Environment:Daylight Saving,No,SizingPeriod:DesignDay
Environment:Design Day Data,26.00,9.30,DefaultMultipliers,Dewpoint,21.60,{C},100893,220,4.9,0.00,No,No
Environment:Design Day Misc,202,1084.4,0.2082,0.1365,1.0,-6.23,20.6,ASHRAETau
Environment,MONTREAL INT'L ANN CLG 1% CONDNS DP=>MDB HVAC Sizing Pass 1,SizingPeriod:DesignDay,07/21,07/21,SummerDesignDay,1,N/A,N/A,N/A,N/A,N/A,N/A,Clark and Allen
Environment:Daylight Saving,No,SizingPeriod:DesignDay
Environment:Design Day Data,25.20,9.30,DefaultMultipliers,Dewpoint,20.70,{C},100893,220,4.9,0.00,No,No
Environment:Design Day Misc,202,1084.4,0.2082,0.1365,1.0,-6.23,20.6,ASHRAETau
Environment,MONTREAL INT'L ANN CLG 2% CONDNS DP=>MDB HVAC Sizing Pass 1,SizingPeriod:DesignDay,07/21,07/21,SummerDesignDay,1,N/A,N/A,N/A,N/A,N/A,N/A,Clark and Allen
Environment:Daylight Saving,No,SizingPeriod:DesignDay
Environment:Design Day Data,24.20,9.30,DefaultMultipliers,Dewpoint,19.80,{C},100893,220,4.9,0.00,No,No
Environment:Design Day Misc,202,1084.4,0.2082,0.1365,1.0,-6.23,20.6,ASHRAETau
Environment,MONTREAL INT'L ANN CLG .4% CONDNS ENTH=>MDB HVAC Sizing Pass 1,SizingPeriod:DesignDay,07/21,07/21,SummerDesignDay,1,N/A,N/A,N/A,N/A,N/A,N/A,Clark and Allen
Environment:Daylight Saving,No,SizingPeriod:DesignDay
Environment:Design Day Data,28.10,9.30,DefaultMultipliers,Enthalpy,69300.00,{J/kgDryAir},100893,220,4.9,0.00,No,No
Environment:Design Day Misc,202,1084.4,0.2082,0.1365,1.0,-6.23,20.6,ASHRAETau
Environment,MONTREAL INT'L ANN CLG 1% CONDNS ENTH=>MDB HVAC Sizing Pass 1,SizingPeriod:DesignDay,07/21,07/21,SummerDesignDay,1,N/A,N/A,N/A,N/A,N/A,N/A,Clark and Allen
Environment:Daylight Saving,No,SizingPeriod:DesignDay
Environment:Design Day Data,26.70,9.30,DefaultMultipliers,Enthalpy,65500.00,{J/kgDryAir},100893,220,4.9,0.00,No,No
Environment:Design Day Misc,202,1084.4,0.2082,0.1365,1.0,-6.23,20.6,ASHRAETau
Environment,MONTREAL INT'L ANN CLG 2% CONDNS ENTH=>MDB HVAC Sizing Pass 1,SizingPeriod:DesignDay,07/21,07/21,SummerDesignDay,1,N/A,N/A,N/A,N/A,N/A,N/A,Clark and Allen
Environment:Daylight Saving,No,SizingPeriod:DesignDay
Environment:Design Day Data,25.60,9.30,DefaultMultipliers,Enthalpy,62300.00,{J/kgDryAir},100893,220,4.9,0.00,No,No
Environment:Design Day Misc,202,1084.4,0.2082,0.1365,1.0,-6.23,20.6,ASHRAETau
Environment,MONTREAL INT'L ANN HTG 99.6% CONDNS DB,SizingPeriod:DesignDay,01/21,01/21,WinterDesignDay,1,N/A,N/A,N/A,N/A,N/A,N/A,Clark and Allen
Environment:Daylight Saving,No,SizingPeriod:DesignDay
Environment:Design Day Data,-23.70,0.00,DefaultMultipliers,Wetbulb,-23.70,{C},100893,260,3.9,0.00,No,No
Environment:Design Day Misc, 21,1229.0,0.1415,5.7310E-002,1.0,-11.15,-20.1,ASHRAEClearSky
Environment:WarmupDays,  6
 Warmup Convergence Information,ZONE 1,SizingPeriod: MONTREAL INT'L ANN HTG 99.6% CONDNS DB,9.8151963876E-005,4.1907092599E-004,Pass,Pass,1.4254366698E-003,2.3414357504E-003,Pass,Pass
Environment,MONTREAL INT'L ANN HTG 99% CONDNS DB,SizingPeriod:DesignDay,01/21,01/21,WinterDesignDay,1,N/A,N/A,N/A,N/A,N/A,N/A,Clark and Allen
Environment:Daylight Saving,No,SizingPeriod:DesignDay
Environment:Design Day Data,-21.10,0.00,DefaultMultipliers,Wetbulb,-21.10,{C},100893,260,3.9,0.00,No,No
Environment:Design Day Misc, 21,1229.0,0.1415,5.7310E-002,1.0,-11.15,-20.1,ASHRAEClearSky
Environment:WarmupDays,  6
 Warmup Convergence Information,ZONE 1,SizingPeriod: MONTREAL INT'L ANN HTG 99% CONDNS DB,9.9881978080E-005,4.2210829784E-004,Pass,Pass,1.5735099323E-003,2.6119886436E-003,Pass,Pass
Environment,MONTREAL INT'L ANN HUM_N 99.6% CONDNS DP=>MCDB,SizingPeriod:DesignDay,01/21,01/21,WinterDesignDay,1,N/A,N/A,N/A,N/A,N/A,N/A,Clark and Allen
Environment:Daylight Saving,No,SizingPeriod:DesignDay
Environment:Design Day Data,-23.00,0.00,DefaultMultipliers,Dewpoint,-30.50,{C},100893,260,3.9,0.00,No,No
Environment:Design Day Misc, 21,1229.0,0.1415,5.7310E-002,1.0,-11.15,-20.1,ASHRAEClearSky
Environment:WarmupDays,  6
 Warmup Convergence Information,ZONE 1,SizingPeriod: MONTREAL INT'L ANN HUM_N 99.6% CONDNS DP=>MCDB,9.8203216904E-005,4.1958085138E-004,Pass,Pass,1.4597515980E-003,2.4085570850E-003,Pass,Pass
Environment,MONTREAL INT'L ANN HUM_N 99% CONDNS DP=>MCDB,SizingPeriod:DesignDay,01/21,01/21,WinterDesignDay,1,N/A,N/A,N/A,N/A,N/A,N/A,Clark and Allen
Environment:Daylight Saving,No,SizingPeriod:DesignDay
Environment:Design Day Data,-20.60,0.00,DefaultMultipliers,Dewpoint,-27.90,{C},100893,260,3.9,0.00,No,No
Environment:Design Day Misc, 21,1229.0,0.1415,5.7310E-002,1.0,-11.15,-20.1,ASHRAEClearSky
Environment:WarmupDays,  6
 Warmup Convergence Information,ZONE 1,SizingPeriod: MONTREAL INT'L ANN HUM_N 99% CONDNS DP=>MCDB,9.9662444556E-005,4.2091537191E-004,Pass,Pass,1.5980559604E-003,2.6551235304E-003,Pass,Pass
Environment,MONTREAL INT'L ANN HTG WIND 99.6% CONDNS WS=>MCDB,SizingPeriod:DesignDay,01/21,01/21,WinterDesignDay,1,N/A,N/A,N/A,N/A,N/A,N/A,Clark and Allen
Environment:Daylight Saving,No,SizingPeriod:DesignDay
Environment:Design Day Data,-5.30,0.00,DefaultMultipliers,Wetbulb,-5.30,{C},100893,260,12.9,0.00,No,No
Environment:Design Day Misc, 21,1229.0,0.1415,5.7310E-002,1.0,-11.15,-20.1,ASHRAEClearSky
Environment:WarmupDays,  6
 Warmup Convergence Information,ZONE 1,SizingPeriod: MONTREAL INT'L ANN HTG WIND 99.6% CONDNS WS=>MCDB,1.0195431213E-004,3.8524908963E-004,Pass,Pass,2.5176228781E-003,4.4167538964E-003,Pass,Pass
Environment,MONTREAL INT'L ANN HTG WIND 99% CONDNS WS=>MCDB,SizingPeriod:DesignDay,01/21,01/21,WinterDesignDay,1,N/A,N/A,N/A,N/A,N/A,N/A,Clark and Allen
Environment:Daylight Saving,No,SizingPeriod:DesignDay
Environment:Design Day Data,-7.90,0.00,DefaultMultipliers,Wetbulb,-7.90,{C},100893,260,11.5,0.00,No,No
Environment:Design Day Misc, 21,1229.0,0.1415,5.7310E-002,1.0,-11.15,-20.1,ASHRAEClearSky
Environment:WarmupDays,  6
 Warmup Convergence Information,ZONE 1,SizingPeriod: MONTREAL INT'L ANN HTG WIND 99% CONDNS WS=>MCDB,1.0630159981E-004,4.1244580870E-004,Pass,Pass,2.3321076151E-003,4.0390989604E-003,Pass,Pass
Environment,MONTREAL INT'L ANN CLG .4% CONDNS DB=>MWB,SizingPeriod:DesignDay,07/21,07/21,SummerDesignDay,1,N/A,N/A,N/A,N/A,N/A,N/A,Clark and Allen
Environment:Daylight Saving,No,SizingPeriod:DesignDay
Environment:Design Day Data,30.00,9.30,DefaultMultipliers,Wetbulb,22.10,{C},100893,220,4.9,0.00,No,No
Environment:Design Day Misc,202,1084.4,0.2082,0.1365,1.0,-6.23,20.6,ASHRAETau
Environment:WarmupDays,  6
 Warmup Convergence Information,ZONE 1,SizingPeriod: MONTREAL INT'L ANN CLG .4% CONDNS DB=>MWB,1.5570175170E-002,2.8471251797E-002,Pass,Pass,0.1044845328,0.2598366469,Pass,Pass
Environment,MONTREAL INT'L ANN CLG 1% CONDNS DB=>MWB,SizingPeriod:DesignDay,07/21,07/21,SummerDesignDay,1,N/A,N/A,N/A,N/A,N/A,N/A,Clark and Allen
Environment:Daylight Saving,No,SizingPeriod:DesignDay
Environment:Design Day Data,28.50,9.30,DefaultMultipliers,Wetbulb,21.10,{C},100893,220,4.9,0.00,No,No
Environment:Design Day Misc,202,1084.4,0.2082,0.1365,1.0,-6.23,20.6,ASHRAETau
Environment:WarmupDays,  6
 Warmup Convergence Information,ZONE 1,SizingPeriod: MONTREAL INT'L ANN CLG 1% CONDNS DB=>MWB,2.3919458114E-002,3.7874886674E-002,Pass,Pass,0.1033792547,0.2405956988,Pass,Pass
Environment,MONTREAL INT'L ANN CLG 2% CONDNS DB=>MWB,SizingPeriod:DesignDay,07/21,07/21,SummerDesignDay,1,N/A,N/A,N/A,N/A,N/A,N/A,Clark and Allen
Environment:Daylight Saving,No,SizingPeriod:DesignDay
Environment:Design Day Data,27.10,9.30,DefaultMultipliers,Wetbulb,20.20,{C},100893,220,4.9,0.00,No,No
Environment:Design Day Misc,202,1084.4,0.2082,0.1365,1.0,-6.23,20.6,ASHRAETau
Environment:WarmupDays,  6
 Warmup Convergence Information,ZONE 1,SizingPeriod: MONTREAL INT'L ANN CLG 2% CONDNS DB=>MWB,3.3286648581E-002,4.5470259958E-002,Pass,Pass,0.1006561411,0.2484378642,Pass,Pass
Environment,MONTREAL INT'L ANN CLG .4% CONDNS WB=>MDB,SizingPeriod:DesignDay,07/21,07/21,SummerDesignDay,1,N/A,N/A,N/A,N/A,N/A,N/A,Clark and Allen
Environment:Daylight Saving,No,SizingPeriod:DesignDay
Environment:Design Day Data,28.10,9.30,DefaultMultipliers,Wetbulb,23.20,{C},100893,220,4.9,0.00,No,No
Environment:Design Day Misc,202,1084.4,0.2082,0.1365,1.0,-6.23,20.6,ASHRAETau
Environment:WarmupDays,  6
 Warmup Convergence Information,ZONE 1,SizingPeriod: MONTREAL INT'L ANN CLG .4% CONDNS WB=>MDB,2.5993153309E-002,3.9677308616E-002,Pass,Pass,0.1030374377,0.2450541172,Pass,Pass
Environment,MONTREAL INT'L ANN CLG 1% CONDNS WB=>MDB,SizingPeriod:DesignDay,07/21,07/21,SummerDesignDay,1,N/A,N/A,N/A,N/A,N/A,N/A,Clark and Allen
Environment:Daylight Saving,No,SizingPeriod:DesignDay
Environment:Design Day Data,26.60,9.30,DefaultMultipliers,Wetbulb,22.20,{C},100893,220,4.9,0.00,No,No
Environment:Design Day Misc,202,1084.4,0.2082,0.1365,1.0,-6.23,20.6,ASHRAETau
Environment:WarmupDays,  6
 Warmup Convergence Information,ZONE 1,SizingPeriod: MONTREAL INT'L ANN CLG 1% CONDNS WB=>MDB,3.6256510678E-002,4.7589691601E-002,Pass,Pass,9.8569484330E-002,0.2367606014,Pass,Pass
Environment,MONTREAL INT'L ANN CLG 2% CONDNS WB=>MDB,SizingPeriod:DesignDay,07/21,07/21,SummerDesignDay,1,N/A,N/A,N/A,N/A,N/A,N/A,Clark and Allen
Environment:Daylight Saving,No,SizingPeriod:DesignDay
Environment:Design Day Data,25.60,9.30,DefaultMultipliers,Wetbulb,21.40,{C},100893,220,4.9,0.00,No,No
Environment:Design Day Misc,202,1084.4,0.2082,0.1365,1.0,-6.23,20.6,ASHRAETau
Environment:WarmupDays,  6
 Warmup Convergence Information,ZONE 1,SizingPeriod: MONTREAL INT'L ANN CLG 2% CONDNS WB=>MDB,4.3514761196E-002,5.2233167788E-002,Pass,Pass,9.3934638912E-002,0.2050340098,Pass,Pass
Environment,MONTREAL INT'L ANN CLG .4% CONDNS DP=>MDB,SizingPeriod:DesignDay,07/21,07/21,SummerDesignDay,1,N/A,N/A,N/A,N/A,N/A,N/A,Clark and Allen
Environment:Daylight Saving,No,SizingPeriod:DesignDay
Environment:Design Day Data,26.00,9.30,DefaultMultipliers,Dewpoint,21.60,{C},100893,220,4.9,0.00,No,No
Environment:Design Day Misc,202,1084.4,0.2082,0.1365,1.0,-6.23,20.6,ASHRAETau
Environment:WarmupDays,  6
 Warmup Convergence Information,ZONE 1,SizingPeriod: MONTREAL INT'L ANN CLG .4% CONDNS DP=>MDB,4.0478483519E-002,5.0673460536E-002,Pass,Pass,9.4066860112E-002,0.2040393559,Pass,Pass
Environment,MONTREAL INT'L ANN CLG 1% CONDNS DP=>MDB,SizingPeriod:DesignDay,07/21,07/21,SummerDesignDay,1,N/A,N/A,N/A,N/A,N/A,N/A,Clark and Allen
Environment:Daylight Saving,No,SizingPeriod:DesignDay
Environment:Design Day Data,25.20,9.30,DefaultMultipliers,Dewpoint,20.70,{C},100893,220,4.9,0.00,No,No
Environment:Design Day Misc,202,1084.4,0.2082,0.1365,1.0,-6.23,20.6,ASHRAETau
Environment:WarmupDays,  6
 Warmup Convergence Information,ZONE 1,SizingPeriod: MONTREAL INT'L ANN CLG 1% CONDNS DP=>MDB,4.6466002497E-002,5.3835181407E-002,Pass,Pass,9.5793231416E-002,0.2246098134,Pass,Pass
Environment,MONTREAL INT'L ANN CLG 2% CONDNS DP=>MDB,SizingPeriod:DesignDay,07/21,07/21,SummerDesignDay,1,N/A,N/A,N/A,N/A,N/A,N/A,Clark and Allen
Environment:Daylight Saving,No,SizingPeriod:DesignDay
Environment:Design Day Data,24.20,9.30,DefaultMultipliers,Dewpoint,19.80,{C},100893,220,4.9,0.00,No,No
Environment:Design Day Misc,202,1084.4,0.2082,0.1365,1.0,-6.23,20.6,ASHRAETau
Environment:WarmupDays,  6
 Warmup Convergence Information,ZONE 1,SizingPeriod: MONTREAL INT'L ANN CLG 2% CONDNS DP=>MDB,5.3815721257E-002,5.7131399137E-002,Pass,Pass,9.6206505702E-002,0.2426649604,Pass,Pass
Environment,MONTREAL INT'L ANN CLG .4% CONDNS ENTH=>MDB,SizingPeriod:DesignDay,07/21,07/21,SummerDesignDay,1,N/A,N/A,N/A,N/A,N/A,N/A,Clark and Allen
Environment:Daylight Saving,No,SizingPeriod:DesignDay
Environment:Design Day Data,28.10,9.30,DefaultMultipliers,Enthalpy,69300.00,{J/kgDryAir},100893,220,4.9,0.00,No,No
Environment:Design Day Misc,202,1084.4,0.2082,0.1365,1.0,-6.23,20.6,ASHRAETau
Environment:WarmupDays,  6
 Warmup Convergence Information,ZONE 1,SizingPeriod: MONTREAL INT'L ANN CLG .4% CONDNS ENTH=>MDB,2.5987519520E-002,3.9674353177E-002,Pass,Pass,0.1030464525,0.2452119797,Pass,Pass
Environment,MONTREAL INT'L ANN CLG 1% CONDNS ENTH=>MDB,SizingPeriod:DesignDay,07/21,07/21,SummerDesignDay,1,N/A,N/A,N/A,N/A,N/A,N/A,Clark and Allen
Environment:Daylight Saving,No,SizingPeriod:DesignDay
Environment:Design Day Data,26.70,9.30,DefaultMultipliers,Enthalpy,65500.00,{J/kgDryAir},100893,220,4.9,0.00,No,No
Environment:Design Day Misc,202,1084.4,0.2082,0.1365,1.0,-6.23,20.6,ASHRAETau
Environment:WarmupDays,  6
 Warmup Convergence Information,ZONE 1,SizingPeriod: MONTREAL INT'L ANN CLG 1% CONDNS ENTH=>MDB,3.5572098625E-002,4.7132851169E-002,Pass,Pass,9.8015294753E-002,0.2357017480,Pass,Pass
Environment,MONTREAL INT'L ANN CLG 2% CONDNS ENTH=>MDB,SizingPeriod:DesignDay,07/21,07/21,SummerDesignDay,1,N/A,N/A,N/A,N/A,N/A,N/A,Clark and Allen
Environment:Daylight Saving,No,SizingPeriod:DesignDay
Environment:Design Day Data,25.60,9.30,DefaultMultipliers,Enthalpy,62300.00,{J/kgDryAir},100893,220,4.9,0.00,No,No
Environment:Design Day Misc,202,1084.4,0.2082,0.1365,1.0,-6.23,20.6,ASHRAETau
Environment:WarmupDays,  6
 Warmup Convergence Information,ZONE 1,SizingPeriod: MONTREAL INT'L ANN CLG 2% CONDNS ENTH=>MDB,4.3515473021E-002,5.2232788298E-002,Pass,Pass,9.3912629645E-002,0.2049871991,Pass,Pass
Environment,ANNUAL,WeatherFileRunPeriod,01/01/2017,12/31/2017,Sunday,365,Use RunPeriod Specified Day,Yes,Yes,No,Yes,Yes,Clark and Allen
Environment:Daylight Saving,No,
Environment:WarmupDays,  6
 Warmup Convergence Information,ZONE 1,RunPeriod: ANNUAL,1.8638672593E-003,3.1012306509E-003,Pass,Pass,5.7905564215E-002,5.4079509184E-002,Pass,Pass
Environment,MONTREAL INT'L ANN HTG 99.6% CONDNS DB HVAC Sizing Pass 1,SizingPeriod:DesignDay,01/21,01/21,WinterDesignDay,1,N/A,N/A,N/A,N/A,N/A,N/A,Clark and Allen
Environment:Daylight Saving,No,SizingPeriod:DesignDay
Environment,MONTREAL INT'L ANN HTG 99% CONDNS DB HVAC Sizing Pass 1,SizingPeriod:DesignDay,01/21,01/21,WinterDesignDay,1,N/A,N/A,N/A,N/A,N/A,N/A,Clark and Allen
Environment:Daylight Saving,No,SizingPeriod:DesignDay
Environment,MONTREAL INT'L ANN HUM_N 99.6% CONDNS DP=>MCDB HVAC Sizing Pass 1,SizingPeriod:DesignDay,01/21,01/21,WinterDesignDay,1,N/A,N/A,N/A,N/A,N/A,N/A,Clark and Allen
Environment:Daylight Saving,No,SizingPeriod:DesignDay
Environment,MONTREAL INT'L ANN HUM_N 99% CONDNS DP=>MCDB HVAC Sizing Pass 1,SizingPeriod:DesignDay,01/21,01/21,WinterDesignDay,1,N/A,N/A,N/A,N/A,N/A,N/A,Clark and Allen
Environment:Daylight Saving,No,SizingPeriod:DesignDay
Environment,MONTREAL INT'L ANN HTG WIND 99.6% CONDNS WS=>MCDB HVAC Sizing Pass 1,SizingPeriod:DesignDay,01/21,01/21,WinterDesignDay,1,N/A,N/A,N/A,N/A,N/A,N/A,Clark and Allen
Environment:Daylight Saving,No,SizingPeriod:DesignDay
Environment,MONTREAL INT'L ANN HTG WIND 99% CONDNS WS=>MCDB HVAC Sizing Pass 1,SizingPeriod:DesignDay,01/21,01/21,WinterDesignDay,1,N/A,N/A,N/A,N/A,N/A,N/A,Clark and Allen
Environment:Daylight Saving,No,SizingPeriod:DesignDay
Environment,MONTREAL INT'L ANN CLG .4% CONDNS DB=>MWB HVAC Sizing Pass 1,SizingPeriod:DesignDay,07/21,07/21,SummerDesignDay,1,N/A,N/A,N/A,N/A,N/A,N/A,Clark and Allen
Environment:Daylight Saving,No,SizingPeriod:DesignDay
Environment,MONTREAL INT'L ANN CLG 1% CONDNS DB=>MWB HVAC Sizing Pass 1,SizingPeriod:DesignDay,07/21,07/21,SummerDesignDay,1,N/A,N/A,N/A,N/A,N/A,N/A,Clark and Allen
Environment:Daylight Saving,No,SizingPeriod:DesignDay
Environment,MONTREAL INT'L ANN CLG 2% CONDNS DB=>MWB HVAC Sizing Pass 1,SizingPeriod:DesignDay,07/21,07/21,SummerDesignDay,1,N/A,N/A,N/A,N/A,N/A,N/A,Clark and Allen
Environment:Daylight Saving,No,SizingPeriod:DesignDay
Environment,MONTREAL INT'L ANN CLG .4% CONDNS WB=>MDB HVAC Sizing Pass 1,SizingPeriod:DesignDay,07/21,07/21,SummerDesignDay,1,N/A,N/A,N/A,N/A,N/A,N/A,Clark and Allen
Environment:Daylight Saving,No,SizingPeriod:DesignDay
Environment,MONTREAL INT'L ANN CLG 1% CONDNS WB=>MDB HVAC Sizing Pass 1,SizingPeriod:DesignDay,07/21,07/21,SummerDesignDay,1,N/A,N/A,N/A,N/A,N/A,N/A,Clark and Allen
Environment:Daylight Saving,No,SizingPeriod:DesignDay
Environment,MONTREAL INT'L ANN CLG 2% CONDNS WB=>MDB HVAC Sizing Pass 1,SizingPeriod:DesignDay,07/21,07/21,SummerDesignDay,1,N/A,N/A,N/A,N/A,N/A,N/A,Clark and Allen
Environment:Daylight Saving,No,SizingPeriod:DesignDay
Environment,MONTREAL INT'L ANN CLG .4% CONDNS DP=>MDB HVAC Sizing Pass 1,SizingPeriod:DesignDay,07/21,07/21,SummerDesignDay,1,N/A,N/A,N/A,N/A,N/A,N/A,Clark and Allen
Environment:Daylight Saving,No,SizingPeriod:DesignDay
Environment,MONTREAL INT'L ANN CLG 1% CONDNS DP=>MDB HVAC Sizing Pass 1,SizingPeriod:DesignDay,07/21,07/21,SummerDesignDay,1,N/A,N/A,N/A,N/A,N/A,N/A,Clark and Allen
Environment:Daylight Saving,No,SizingPeriod:DesignDay
Environment,MONTREAL INT'L ANN CLG 2% CONDNS DP=>MDB HVAC Sizing Pass 1,SizingPeriod:DesignDay,07/21,07/21,SummerDesignDay,1,N/A,N/A,N/A,N/A,N/A,N/A,Clark and Allen
Environment:Daylight Saving,No,SizingPeriod:DesignDay
Environment,MONTREAL INT'L ANN CLG .4% CONDNS ENTH=>MDB HVAC Sizing Pass 1,SizingPeriod:DesignDay,07/21,07/21,SummerDesignDay,1,N/A,N/A,N/A,N/A,N/A,N/A,Clark and Allen
Environment:Daylight Saving,No,SizingPeriod:DesignDay
Environment,MONTREAL INT'L ANN CLG 1% CONDNS ENTH=>MDB HVAC Sizing Pass 1,SizingPeriod:DesignDay,07/21,07/21,SummerDesignDay,1,N/A,N/A,N/A,N/A,N/A,N/A,Clark and Allen
Environment:Daylight Saving,No,SizingPeriod:DesignDay
Environment,MONTREAL INT'L ANN CLG 2% CONDNS ENTH=>MDB HVAC Sizing Pass 1,SizingPeriod:DesignDay,07/21,07/21,SummerDesignDay,1,N/A,N/A,N/A,N/A,N/A,N/A,Clark and Allen
Environment:Daylight Saving,No,SizingPeriod:DesignDay
! <Program Control Information:Threads/Parallel Sims>, Threading Supported,Maximum Number of Threads, Env Set Threads (OMP_NUM_THREADS), EP Env Set Threads (EP_OMP_NUM_THREADS), IDF Set Threads, Number of Threads Used (Interior Radiant Exchange), Number Nominal Surfaces, Number Parallel Sims
Program Control:Threads/Parallel Sims, No,1, N/A, N/A, N/A, N/A, N/A, N/A
End of Data
