Program Version,EnergyPlus, Version 9.5.0-de239b2e5f, YMD=2023.07.06 14:34,
   ************* Beginning Zone Sizing Calculations
   ** Warning ** ProcessScheduleInput: Schedule:Constant="COUNT", Schedule Type Limits Name="ANYNUMBER" not found -- will not be validated
   ** Warning ** Foundation:Kiva="SLAB DETAILS", no Interior Horizontal Insulation Material Name defined
   **   ~~~   ** Interior Horizontal Insulation Depth will not be used.
   ** Warning ** Foundation:Kiva="SLAB DETAILS", no Exterior Horizontal Insulation Material Name defined
   **   ~~~   ** Exterior Horizontal Insulation Width will not be used.
   ** Warning ** Foundation:Kiva="SLAB DETAILS", no Footing Material Name defined
   **   ~~~   ** Footing Depth will not be used.
   ** Warning ** GetSurfaceData: Entered Zone Floor Areas differ from calculated Zone Floor Area(s).
   **   ~~~   ** ...use Output:Diagnostics,DisplayExtraWarnings; to show more details on individual zones.
   ************* Note that the following warning(s) may/will occur if you have not enclosed your zone completely.
   ** Warning ** Entered Zone Volumes differ from calculated zone volume(s).
   **   ~~~   ** ...use Output:Diagnostics,DisplayExtraWarnings; to show more details on individual zones.
   ** Warning ** CalculateZoneVolume: 1 zone is not fully enclosed. For more details use:  Output:Diagnostics,DisplayExtrawarnings; 
   ** Warning ** CheckUsedConstructions: There are 25 nominally unused constructions in input.
   **   ~~~   ** For explicit details on each unused construction, use Output:Diagnostics,DisplayExtraWarnings;
   ** Warning ** GeneratorController constructor ElectricLoadCenter:Generators, Availability Schedule for Generator:PVWatts '3 KW PV' will be be ignored (runs all the time).
   ** Warning ** AirLoopHVAC:UnitarySystem = GASHEATDXACFURNACE
   **   ~~~   ** Method used to determine the cooling supply air flow rate is not specified when cooling coil is present.
   ** Warning ** AirLoopHVAC:UnitarySystem = GASHEATDXACFURNACE
   **   ~~~   ** Method used to determine the heating supply air flow rate is not specified when heating coil is present.
   ** Warning ** For object = Coil:Cooling:DX:SingleSpeed, name = "FURNACE ACDXCOIL 1"
   **   ~~~   ** Calculated outlet air relative humidity greater than 1. The combination of
   **   ~~~   ** rated air volume flow rate, total cooling capacity and sensible heat ratio yields coil exiting
   **   ~~~   ** air conditions above the saturation curve. Possible fixes are to reduce the rated total cooling
   **   ~~~   ** capacity, increase the rated air volume flow rate, or reduce the rated sensible heat ratio for this coil.
   **   ~~~   ** If autosizing, it is recommended that all three of these values be autosized.
   **   ~~~   ** ...Inputs used for calculating cooling coil bypass factor.
   **   ~~~   ** ...Inlet Air Temperature     = 26.67 C
   **   ~~~   ** ...Outlet Air Temperature    = 12.32 C
   **   ~~~   ** ...Inlet Air Humidity Ratio  = 1.118470E-002 kgWater/kgDryAir
   **   ~~~   ** ...Outlet Air Humidity Ratio = 9.267991E-003 kgWater/kgDryAir
   **   ~~~   ** ...Total Cooling Capacity used in calculation = 4640.92 W
   **   ~~~   ** ...Air Mass Flow Rate used in calculation     = 0.237334 kg/s
   **   ~~~   ** ...Air Volume Flow Rate used in calculation   = 0.205174 m3/s
   **   ~~~   **  During Warmup, Environment=CHICAGO MIDWAY AP ANN HTG 99.6% CONDNS DB, at Simulation time=01/21 00:00 - 00:15
   **   ~~~   ** CalcCBF: SHR adjusted to achieve valid outlet air properties and the simulation continues.
   **   ~~~   ** CalcCBF: initial SHR = 0.75000
   **   ~~~   ** CalcCBF: adjusted SHR = 0.73092
   ************* Testing Individual Branch Integrity
   ************* All Branches passed integrity testing
   ************* Testing Individual Supply Air Path Integrity
   ************* All Supply Air Paths passed integrity testing
   ************* Testing Individual Return Air Path Integrity
   ************* All Return Air Paths passed integrity testing
   ************* No node connection errors were found.
   ** Warning ** For ZoneHVAC:EnergyRecoveryVentilator "ERV1" there is unbalanced exhaust air flow.
   **   ~~~   ** ... The exhaust air mass flow rate = 1.111896E-002
   **   ~~~   ** ... The  supply air mass flow rate = 9.033923E-003
   **   ~~~   **  Environment=CHICAGO MIDWAY AP ANN HTG 99.6% CONDNS DB HVAC Sizing Pass 1, at Simulation time=01/21 00:00 - 00:15
   **   ~~~   ** ... Unless there is balancing infiltration / ventilation air flow, this will result in
   **   ~~~   ** ... load due to induced outside air being neglected in the simulation.
   ** Warning ** HeatExchanger:AirToAir:SensibleAndLatent "ERV_CORE"
   **   ~~~   ** Average air volume flow rate is <50% or >130% of the nominal HX supply air volume flow rate.
   **   ~~~   ** Air volume flow rate ratio = 0.201. Environment=CHICAGO MIDWAY AP ANN HTG 99.6% CONDNS DB HVAC Sizing Pass 1, at Simulation time=01/21 00:00 - 00:15
   ************* Beginning Simulation
   ** Warning ** WetBulb not converged after 101 iterations(PsyTwbFnTdbWPb)
   **   ~~~   **  Routine=NodeReportingCalc:ZONE_1_ZONE_AIR_NODE, Environment=ANNUAL, at Simulation time=01/29 11:45 - 12:00
   **   ~~~   **  Input Temperature = 7.74
   **   ~~~   **  Input Humidity Ratio= 7.090843E-004
   **   ~~~   **  Input Pressure = 99800.00
   **   ~~~   **  Resultant Temperature= 0.20
   ************* Simulation Error Summary *************
   ************* There are 1 unused objects in input.
   ************* Use Output:Diagnostics,DisplayUnusedObjects; to see them.
   ************* There are 1 unused schedules in input.
   ************* Use Output:Diagnostics,DisplayUnusedSchedules; to see them.
   *************
   ************* ===== Recurring Error Summary =====
   ************* The following recurring error messages occurred.
   *************
   *************  ** Warning ** HeatExchanger:AirToAir:SensibleAndLatent "ERV_CORE":  Average air volume flow rate is <50% or >130% warning continues. Air flow rate ratio statistics follow.
   *************  **   ~~~   **   This error occurred 36342 total times;
   *************  **   ~~~   **   during Warmup 0 times;
   *************  **   ~~~   **   during Sizing 0 times.
   *************  **   ~~~   **   Max=0.206475  Min=0.195523
   *************
   *************  ** Warning ** WetBulb not converged after max iterations(PsyTwbFnTdbWPb)
   *************  **   ~~~   **   This error occurred 1 total times;
   *************  **   ~~~   **   during Warmup 0 times;
   *************  **   ~~~   **   during Sizing 0 times.
   *************
   *************
   ************* ===== Final Error Summary =====
   ************* The following error categories occurred.  Consider correcting or noting.
   ************* Nominally Unused Constructions
   ************* ..The nominally unused constructions warning is provided to alert you to potential conditions that can cause
   ************* ..extra time during simulation. Each construction is calculated by the algorithm indicated in the HeatBalanceAlgorithm
   ************* ..object. You may remove the constructions indicated (when you use the DisplayExtraWarnings option).
   *************
   ************* EnergyPlus Warmup Error Summary. During Warmup: 0 Warning; 0 Severe Errors.
   ************* EnergyPlus Sizing Error Summary. During Sizing: 11 Warning; 0 Severe Errors.
   ************* EnergyPlus Completed Successfully-- 36357 Warning; 0 Severe Errors; Elapsed Time=00hr 00min 18.29sec
